<routes>
    <!-- Vehicle types for truck platoons -->
    <vType id="truck" accel="1.0" decel="3.0" sigma="0.5" length="10" minGap="3" maxSpeed="22.352" color="1,1,0"/>
    <vType id="truck_platoon_leader" accel="1.0" decel="3.0" sigma="0.0" length="10" minGap="2" maxSpeed="22.352" color="0.8,0.4,0"/>
    <vType id="truck_platoon_follower" accel="1.0" decel="3.0" sigma="0.0" length="10" minGap="0.5" maxSpeed="22.352" color="0.8,0.8,0"/>
    
    <!-- Create truck platoons -->
    <route id="main_route" edges="-1015979281 -1061188798#0 -1061188798#1 -1341758465 -1368338254#0 -1368338254#1 -1368338255 -1368340586 -1376463965 -141900842 -173011701#0 -173011701#1 -173012495 -173228844#0 -173228847 -173228855 -173228863 -173871267 -174269693 -175374225 -220078077#0 -262597962#0 -262597962#1 -262597962#2 -319510213#0 -319510213#1 -319510214#0 -319510214#1 -319510214#2 -711663927#0 -711663927#1 -713034546 -768403372 -768403374 -965407965#0 -965407965#1 -965407966#0 1030028799 1046762229#0 1061188798#0 1061188798#1 1074185971 1074185973#0 1074185973#1 1074185974 1074185975#0 1119412352 1188717144 1256780406 1337694696#0 1338232317 1340023179#1 1340023181#1 1340221060 1340221061 1340221062 1341527109 1341527110 1341530786 1341530787 1341533256 1341533257 1341533258 1341533259 1341533260 1341535487 1341535488 1341758465 1341758466 1341782706 1341787697 1341787698 1341836049 1341836050 1342359440 1343391534 1343437883 1343437885 1343441228 1343445560 1352033581 1359792196#2 1359792197 1363518334 1363518335 1368338254#0 1368338254#1 1368338255 1376435620 1376463965 141900811 141900842 173011692#1 173011700#1 173011701#0 173011701#1 173011703 173011704 173012494#1 173012495 173012496#0 173012496#1 173012497 173013293#1 173016194#0 173016194#1 173016196#0 173016196#1 173016197 173228844#0 173228847 173228849 173228854 173228855 173228856 173228857 173228859 173870623 173870626 173871267 173871274#0 173871274#1 173874994 174269693 175374226 220078077#0 220078077#1 228463831#0 228464633#0 228464633#1 228464637 262597962#1 262597962#2 278440328#0 278440328#1 319509984 319510213#0 319510213#1 319510214#0 319510214#1 319510214#2 319510214#3 319762586 319762587#0 319762587#4 543215369#0 543215373 543215376 543215377 543215378 543215383#1 543215389 698329007 698787678 698787679 698787691#1 698787691#2 70457713#0 70457713#1 70583993 711663927#0 711663927#1 713034546 768403365 768403372 768403374 768403375 8824804#0 8824804#1 8824804#1-AddedOnRampEdge 8824805 8839857 965407965#1 965407966#0 965407966#1"/>
    <flow id="truck_platoon" type="truck" route="main_route" begin="0" number="3" departLane="0" departSpeed="22.352"/>
</routes>