<?xml version="1.0" encoding="UTF-8"?>

<!-- generated on 2025-04-18 14:35:05 by Eclipse SUMO netconvert Version 1.22.0
<netconvertConfiguration xmlns:xsi="http://www.w3.org/2001/XMLSchema-instance" xsi:noNamespaceSchemaLocation="http://sumo.dlr.de/xsd/netconvertConfiguration.xsd">

    <input>
        <type-files value="${SUMO_HOME}\data\typemap\osmNetconvert.typ.xml"/>
        <osm-files value="osm_bbox.osm.xml.gz"/>
    </input>

    <output>
        <output-file value="osm.net.xml.gz"/>
        <output.street-names value="true"/>
        <output.original-names value="true"/>
    </output>

    <projection>
        <proj.utm value="true"/>
    </projection>

    <processing>
        <geometry.remove value="true"/>
        <roundabouts.guess value="true"/>
    </processing>

    <tls_building>
        <tls.discard-simple value="true"/>
        <tls.join value="true"/>
        <tls.guess-signals value="true"/>
        <tls.default-type value="actuated"/>
    </tls_building>

    <ramp_guessing>
        <ramps.guess value="true"/>
    </ramp_guessing>

    <junctions>
        <junctions.join value="true"/>
        <junctions.corner-detail value="5"/>
    </junctions>

</netconvertConfiguration>
-->

<net version="1.20" junctionCornerDetail="5" limitTurnSpeed="5.50" xmlns:xsi="http://www.w3.org/2001/XMLSchema-instance" xsi:noNamespaceSchemaLocation="http://sumo.dlr.de/xsd/net_file.xsd">

    <location netOffset="-290850.88,-4309470.27" convBoundary="0.00,0.00,4088.83,3967.17" origBoundary="-77.412269,38.909953,-77.366063,38.944980" projParameter="+proj=utm +zone=18 +ellps=WGS84 +datum=WGS84 +units=m +no_defs"/>

    <type id="highway.bridleway" priority="1" numLanes="1" speed="2.78" allow="pedestrian" oneway="1" width="2.00"/>
    <type id="highway.cycleway" priority="1" numLanes="1" speed="5.56" allow="bicycle" oneway="0" width="2.00"/>
    <type id="highway.footway" priority="1" numLanes="1" speed="2.78" allow="pedestrian" oneway="1" width="2.00"/>
    <type id="highway.path" priority="1" numLanes="1" speed="5.56" allow="pedestrian bicycle" oneway="0" width="2.00"/>
    <type id="highway.primary" priority="12" numLanes="2" speed="27.78" disallow="tram rail_urban rail rail_electric rail_fast ship container cable_car subway aircraft wheelchair scooter drone" oneway="0"/>
    <type id="highway.primary_link" priority="7" numLanes="1" speed="22.22" disallow="tram rail_urban rail rail_electric rail_fast ship container cable_car subway aircraft wheelchair scooter drone" oneway="0"/>
    <type id="highway.residential" priority="3" numLanes="1" speed="13.89" disallow="tram rail_urban rail rail_electric rail_fast ship container cable_car subway aircraft wheelchair scooter drone" oneway="0"/>
    <type id="highway.secondary" priority="11" numLanes="1" speed="27.78" disallow="tram rail_urban rail rail_electric rail_fast ship container cable_car subway aircraft wheelchair scooter drone" oneway="0"/>
    <type id="highway.secondary_link" priority="6" numLanes="1" speed="22.22" disallow="tram rail_urban rail rail_electric rail_fast ship container cable_car subway aircraft wheelchair scooter drone" oneway="0"/>
    <type id="highway.steps" priority="1" numLanes="1" speed="1.39" allow="pedestrian" oneway="1" width="2.00"/>
    <type id="highway.tertiary" priority="10" numLanes="1" speed="22.22" disallow="tram rail_urban rail rail_electric rail_fast ship container cable_car subway aircraft wheelchair scooter drone" oneway="0"/>
    <type id="highway.trunk" priority="13" numLanes="2" speed="27.78" disallow="pedestrian bicycle tram rail_urban rail rail_electric rail_fast ship container cable_car subway aircraft wheelchair scooter drone" oneway="0"/>
    <type id="highway.trunk_link" priority="8" numLanes="1" speed="22.22" disallow="pedestrian bicycle tram rail_urban rail rail_electric rail_fast ship container cable_car subway aircraft wheelchair scooter drone" oneway="0"/>

    <edge id=":11037939629_0" function="internal">
        <lane id=":11037939629_0_0" index="0" disallow="tram rail_urban rail rail_electric rail_fast ship container cable_car subway aircraft wheelchair scooter drone" speed="18.93" length="3.12" shape="2621.05,3204.94 2619.56,3207.68"/>
    </edge>
    <edge id=":11037939629_1" function="internal">
        <lane id=":11037939629_1_0" index="0" disallow="tram rail_urban rail rail_electric rail_fast ship container cable_car subway aircraft wheelchair scooter drone" speed="15.65" length="3.12" shape="2618.30,3203.31 2616.71,3205.98"/>
        <lane id=":11037939629_1_1" index="1" disallow="tram rail_urban rail rail_electric rail_fast ship container cable_car subway aircraft wheelchair scooter drone" speed="15.65" length="3.12" shape="2615.55,3201.67 2613.96,3204.35"/>
    </edge>
    <edge id=":12101148067_0" function="internal">
        <lane id=":12101148067_0_0" index="0" allow="pedestrian bicycle" speed="5.56" length="7.18" width="2.00" shape="3907.94,1853.51 3903.49,1859.15"/>
    </edge>
    <edge id=":12101148067_1" function="internal">
        <lane id=":12101148067_1_0" index="0" allow="pedestrian bicycle" speed="5.56" length="7.54" width="2.00" shape="3907.94,1853.51 3906.64,1854.68 3905.06,1855.26 3903.19,1855.24 3901.04,1854.63"/>
    </edge>
    <edge id=":12101148067_2" function="internal">
        <lane id=":12101148067_2_0" index="0" allow="pedestrian bicycle" speed="2.89" length="2.92" width="2.00" shape="3907.94,1853.51 3907.08,1853.79 3906.53,1853.68 3906.30,1853.17 3906.37,1852.27"/>
    </edge>
    <edge id=":12101148067_3" function="internal">
        <lane id=":12101148067_3_0" index="0" allow="pedestrian bicycle" speed="5.43" length="4.96" width="2.00" shape="3901.77,1852.77 3903.26,1853.21 3904.52,1853.28 3905.56,1852.96 3906.37,1852.27"/>
    </edge>
    <edge id=":12101148067_4" function="internal">
        <lane id=":12101148067_4_0" index="0" allow="pedestrian bicycle" speed="5.55" length="8.17" width="2.00" shape="3901.77,1852.77 3903.81,1853.93 3904.78,1855.38 3904.67,1857.12 3903.49,1859.15"/>
    </edge>
    <edge id=":12101148067_5" function="internal">
        <lane id=":12101148067_5_0" index="0" allow="pedestrian bicycle" speed="2.89" length="2.92" width="2.00" shape="3901.77,1852.77 3902.29,1853.51 3902.34,1854.07 3901.92,1854.44 3901.04,1854.63"/>
    </edge>
    <edge id=":12101148067_6" function="internal">
        <lane id=":12101148067_6_0" index="0" allow="pedestrian bicycle" speed="4.15" length="4.20" width="2.00" shape="3901.92,1857.91 3902.53,1856.86 3902.58,1855.97 3902.09,1855.23 3901.04,1854.63"/>
    </edge>
    <edge id=":12101148067_7" function="internal">
        <lane id=":12101148067_7_0" index="0" allow="pedestrian bicycle" speed="5.56" length="7.18" width="2.00" shape="3901.92,1857.91 3906.37,1852.27"/>
    </edge>
    <edge id=":12101148067_8" function="internal">
        <lane id=":12101148067_8_0" index="0" allow="pedestrian bicycle" speed="2.89" length="2.92" width="2.00" shape="3901.92,1857.91 3902.78,1857.63 3903.33,1857.74 3903.56,1858.25 3903.49,1859.15"/>
    </edge>
    <edge id=":12101148082_0" function="internal">
        <lane id=":12101148082_0_0" index="0" allow="pedestrian bicycle" speed="2.89" length="2.92" width="2.00" shape="3896.27,1392.11 3896.75,1391.34 3897.24,1391.08 3897.75,1391.32 3898.27,1392.06"/>
    </edge>
    <edge id=":12180589647_0" function="internal">
        <lane id=":12180589647_0_0" index="0" allow="pedestrian bicycle" speed="5.56" length="6.42" width="2.00" shape="3894.77,1852.15 3893.46,1851.89 3892.05,1852.09 3890.52,1852.76 3888.88,1853.89"/>
    </edge>
    <edge id=":12180589647_1" function="internal">
        <lane id=":12180589647_1_0" index="0" allow="pedestrian bicycle" speed="5.56" length="8.20" width="2.00" shape="3894.77,1852.15 3887.15,1849.13"/>
    </edge>
    <edge id=":12180589647_2" function="internal">
        <lane id=":12180589647_2_0" index="0" allow="pedestrian bicycle" speed="5.56" length="7.34" width="2.00" shape="3894.77,1852.15 3893.15,1851.20 3892.17,1849.88 3891.80,1848.18 3892.06,1846.11"/>
    </edge>
    <edge id=":12180589647_3" function="internal">
        <lane id=":12180589647_3_0" index="0" allow="pedestrian bicycle" speed="2.89" length="2.92" width="2.00" shape="3894.77,1852.15 3894.25,1851.41 3894.20,1850.85 3894.62,1850.48 3895.50,1850.29"/>
    </edge>
    <edge id=":12180589647_4" function="internal">
        <lane id=":12180589647_4_0" index="0" allow="pedestrian bicycle" speed="4.82" length="4.41" width="2.00" shape="3894.00,1846.61 3893.83,1847.89 3894.02,1848.93 3894.58,1849.73 3895.50,1850.29"/>
    </edge>
    <edge id=":12180589647_5" function="internal">
        <lane id=":12180589647_5_0" index="0" allow="pedestrian bicycle" speed="5.56" length="9.18" width="2.00" shape="3894.00,1846.61 3893.23,1849.17 3892.33,1850.82 3890.99,1852.18 3888.88,1853.89"/>
    </edge>
    <edge id=":12180589647_6" function="internal">
        <lane id=":12180589647_6_0" index="0" allow="pedestrian bicycle" speed="5.56" length="8.56" width="2.00" shape="3894.00,1846.61 3893.12,1848.55 3891.68,1849.62 3889.69,1849.81 3887.15,1849.13"/>
    </edge>
    <edge id=":12180589647_7" function="internal">
        <lane id=":12180589647_7_0" index="0" allow="pedestrian bicycle" speed="2.89" length="2.92" width="2.00" shape="3894.00,1846.61 3893.33,1847.21 3892.79,1847.33 3892.36,1846.96 3892.06,1846.11"/>
    </edge>
    <edge id=":12180589647_8" function="internal">
        <lane id=":12180589647_8_0" index="0" allow="pedestrian bicycle" speed="4.69" length="5.04" width="2.00" shape="3887.88,1847.27 3889.47,1847.72 3890.69,1847.68 3891.56,1847.14 3892.06,1846.11"/>
    </edge>
    <edge id=":12180589647_9" function="internal">
        <lane id=":12180589647_9_0" index="0" allow="pedestrian bicycle" speed="5.56" length="8.19" width="2.00" shape="3887.88,1847.27 3895.50,1850.29"/>
    </edge>
    <edge id=":12180589647_10" function="internal">
        <lane id=":12180589647_10_0" index="0" allow="pedestrian bicycle" speed="5.49" length="9.10" width="2.00" shape="3887.88,1847.27 3890.26,1848.60 3891.23,1850.15 3890.76,1851.91 3888.88,1853.89"/>
    </edge>
    <edge id=":12180589647_11" function="internal">
        <lane id=":12180589647_11_0" index="0" allow="pedestrian bicycle" speed="2.89" length="2.92" width="2.00" shape="3887.88,1847.27 3888.40,1848.01 3888.44,1848.57 3888.03,1848.94 3887.15,1849.13"/>
    </edge>
    <edge id=":12180589647_12" function="internal">
        <lane id=":12180589647_12_0" index="0" allow="pedestrian bicycle" speed="4.00" length="4.40" width="2.00" shape="3887.63,1852.33 3888.54,1851.37 3888.76,1850.52 3888.30,1849.77 3887.15,1849.13"/>
    </edge>
    <edge id=":12180589647_13" function="internal">
        <lane id=":12180589647_13_0" index="0" allow="pedestrian bicycle" speed="5.56" length="7.88" width="2.00" shape="3887.63,1852.33 3889.45,1850.87 3890.61,1849.71 3891.39,1848.31 3892.06,1846.11"/>
    </edge>
    <edge id=":12180589647_14" function="internal">
        <lane id=":12180589647_14_0" index="0" allow="pedestrian bicycle" speed="5.56" length="8.52" width="2.00" shape="3887.63,1852.33 3889.73,1850.91 3891.75,1850.09 3893.67,1849.88 3895.50,1850.29"/>
    </edge>
    <edge id=":12180589647_15" function="internal">
        <lane id=":12180589647_15_0" index="0" allow="pedestrian bicycle" speed="2.89" length="2.92" width="2.00" shape="3887.63,1852.33 3888.53,1852.25 3889.04,1852.48 3889.15,1853.03 3888.88,1853.89"/>
    </edge>
    <edge id=":12180589681_0" function="internal">
        <lane id=":12180589681_0_0" index="0" allow="pedestrian bicycle" speed="5.56" length="5.73" width="2.00" shape="3800.48,1812.43 3800.05,1810.58 3799.45,1809.17 3798.69,1808.20 3797.77,1807.66"/>
    </edge>
    <edge id=":12180589681_1" function="internal">
        <lane id=":12180589681_1_0" index="0" allow="pedestrian bicycle" speed="5.50" length="8.93" width="2.00" shape="3800.48,1812.43 3800.39,1809.77 3801.20,1808.16 3802.91,1807.58 3805.53,1808.05"/>
    </edge>
    <edge id=":12180589681_2" function="internal">
        <lane id=":12180589681_2_0" index="0" allow="pedestrian bicycle" speed="2.89" length="2.92" width="2.00" shape="3800.48,1812.43 3800.85,1811.61 3801.30,1811.28 3801.83,1811.44 3802.45,1812.09"/>
    </edge>
    <edge id=":12180589681_3" function="internal">
        <lane id=":12180589681_3_0" index="0" allow="pedestrian bicycle" speed="4.02" length="4.36" width="2.00" shape="3804.92,1809.95 3803.64,1809.73 3802.80,1810.01 3802.41,1810.80 3802.45,1812.09"/>
    </edge>
    <edge id=":12180589681_4" function="internal">
        <lane id=":12180589681_4_0" index="0" allow="pedestrian bicycle" speed="5.56" length="7.51" width="2.00" shape="3804.92,1809.95 3797.77,1807.66"/>
    </edge>
    <edge id=":12180589681_5" function="internal">
        <lane id=":12180589681_5_0" index="0" allow="pedestrian bicycle" speed="2.89" length="2.92" width="2.00" shape="3804.92,1809.95 3804.36,1809.25 3804.27,1808.69 3804.66,1808.30 3805.53,1808.05"/>
    </edge>
    <edge id=":12180589681_6" function="internal">
        <lane id=":12180589681_6_0" index="0" allow="pedestrian bicycle" speed="5.56" length="7.51" width="2.00" shape="3798.38,1805.75 3805.53,1808.05"/>
    </edge>
    <edge id=":12180589681_7" function="internal">
        <lane id=":12180589681_7_0" index="0" allow="pedestrian bicycle" speed="5.56" length="7.91" width="2.00" shape="3798.38,1805.75 3799.82,1806.53 3800.98,1807.85 3801.86,1809.70 3802.45,1812.09"/>
    </edge>
    <edge id=":12180589681_8" function="internal">
        <lane id=":12180589681_8_0" index="0" allow="pedestrian bicycle" speed="2.89" length="2.92" width="2.00" shape="3798.38,1805.75 3798.94,1806.46 3799.03,1807.01 3798.64,1807.41 3797.77,1807.66"/>
    </edge>
    <edge id=":12180589686_0" function="internal">
        <lane id=":12180589686_0_0" index="0" allow="pedestrian bicycle" speed="4.83" length="4.70" width="2.00" shape="3684.39,1620.25 3683.95,1618.92 3683.28,1618.02 3682.36,1617.56 3681.21,1617.54"/>
    </edge>
    <edge id=":12180589686_1" function="internal">
        <lane id=":12180589686_1_0" index="0" allow="pedestrian bicycle" speed="5.56" length="12.85" width="2.00" shape="3684.39,1620.25 3683.71,1616.90 3683.16,1613.94 3682.70,1610.96 3682.31,1607.57"/>
    </edge>
    <edge id=":12180589686_2" function="internal">
        <lane id=":12180589686_2_0" index="0" allow="pedestrian bicycle" speed="6.89" length="10.93" width="2.00" shape="3684.39,1620.25 3683.77,1616.11 3683.83,1613.08 3684.56,1611.14 3685.97,1610.30"/>
    </edge>
    <edge id=":12180589686_3" function="internal">
        <lane id=":12180589686_3_0" index="0" allow="pedestrian bicycle" speed="2.89" length="2.92" width="2.00" shape="3684.39,1620.25 3684.74,1619.42 3685.19,1619.08 3685.73,1619.24 3686.36,1619.88"/>
    </edge>
    <edge id=":12180589686_4" function="internal">
        <lane id=":12180589686_4_0" index="0" allow="pedestrian bicycle" speed="4.40" length="3.66" width="2.00" shape="3687.03,1616.61 3686.50,1616.90 3686.21,1617.54 3686.16,1618.53 3686.36,1619.88"/>
    </edge>
    <edge id=":12180589686_5" function="internal">
        <lane id=":12180589686_5_0" index="0" disallow="tram rail_urban rail rail_electric rail_fast ship container cable_car subway aircraft wheelchair scooter drone" speed="17.88" length="5.87" shape="3687.03,1616.61 3681.21,1617.54"/>
        <lane id=":12180589686_5_1" index="1" disallow="tram rail_urban rail rail_electric rail_fast ship container cable_car subway aircraft wheelchair scooter drone" speed="17.88" length="5.87" shape="3686.50,1613.46 3680.72,1614.37"/>
    </edge>
    <edge id=":12180589686_7" function="internal">
        <lane id=":12180589686_7_0" index="0" allow="pedestrian bicycle" speed="6.08" length="0.83" width="2.00" shape="3686.50,1613.46 3685.68,1613.38"/>
    </edge>
    <edge id=":12180589686_15" function="internal">
        <lane id=":12180589686_15_0" index="0" allow="pedestrian bicycle" speed="6.08" length="7.32" width="2.00" shape="3685.68,1613.38 3684.91,1613.31 3683.68,1612.28 3682.81,1610.37 3682.31,1607.57"/>
    </edge>
    <edge id=":12180589686_8" function="internal">
        <lane id=":12180589686_8_0" index="0" allow="pedestrian bicycle" speed="4.20" length="3.73" width="2.00" shape="3684.30,1607.37 3684.52,1608.74 3684.87,1609.68 3685.36,1610.20 3685.97,1610.30"/>
    </edge>
    <edge id=":12180589686_9" function="internal">
        <lane id=":12180589686_9_0" index="0" allow="pedestrian bicycle" speed="5.56" length="12.69" width="2.00" shape="3684.30,1607.37 3684.69,1610.74 3685.14,1613.66 3685.68,1616.56 3686.36,1619.88"/>
    </edge>
    <edge id=":12180589686_10" function="internal">
        <lane id=":12180589686_10_0" index="0" allow="pedestrian bicycle" speed="6.41" length="8.77" width="2.00" shape="3684.30,1607.37 3684.31,1610.20 3683.72,1612.30 3682.52,1613.70 3680.72,1614.37"/>
    </edge>
    <edge id=":12180589686_11" function="internal">
        <lane id=":12180589686_11_0" index="0" allow="pedestrian bicycle" speed="2.89" length="2.92" width="2.00" shape="3684.30,1607.37 3683.87,1608.17 3683.40,1608.47 3682.88,1608.27 3682.31,1607.57"/>
    </edge>
    <edge id=":12180589686_12" function="internal">
        <lane id=":12180589686_12_0" index="0" allow="pedestrian bicycle" speed="4.99" length="4.69" width="2.00" shape="3680.24,1611.21 3681.27,1610.85 3681.95,1610.12 3682.30,1609.03 3682.31,1607.57"/>
    </edge>
    <edge id=":12180589686_13" function="internal">
        <lane id=":12180589686_13_0" index="0" disallow="tram rail_urban rail rail_electric rail_fast ship container cable_car subway aircraft wheelchair scooter drone" speed="17.88" length="5.80" shape="3680.24,1611.21 3685.97,1610.30"/>
    </edge>
    <edge id=":12180589686_14" function="internal">
        <lane id=":12180589686_14_0" index="0" allow="pedestrian bicycle" speed="7.41" length="1.46" width="2.00" shape="3680.24,1611.21 3681.69,1611.43"/>
    </edge>
    <edge id=":12180589686_16" function="internal">
        <lane id=":12180589686_16_0" index="0" allow="pedestrian bicycle" speed="7.41" length="10.09" width="2.00" shape="3681.69,1611.43 3682.20,1611.51 3683.87,1613.06 3685.26,1615.85 3686.36,1619.88"/>
    </edge>
    <edge id=":12198374933_0" function="internal">
        <lane id=":12198374933_0_0" index="0" disallow="pedestrian bicycle tram rail_urban rail rail_electric rail_fast ship container cable_car subway aircraft wheelchair scooter drone" speed="22.35" length="8.60" shape="1277.76,1086.75 1279.36,1088.69 1281.06,1089.53 1282.76,1090.36 1284.36,1092.30"/>
        <lane id=":12198374933_0_1" index="1" disallow="pedestrian bicycle tram rail_urban rail rail_electric rail_fast ship container cable_car subway aircraft wheelchair scooter drone" speed="22.35" length="8.60" shape="1274.94,1088.26 1276.54,1090.20 1278.24,1091.03 1279.93,1091.87 1281.54,1093.81"/>
        <lane id=":12198374933_0_2" index="2" disallow="pedestrian bicycle tram rail_urban rail rail_electric rail_fast ship container cable_car subway aircraft wheelchair scooter drone" speed="22.35" length="8.60" shape="1274.94,1088.26 1278.71,1095.32"/>
        <lane id=":12198374933_0_3" index="3" disallow="pedestrian bicycle tram rail_urban rail rail_electric rail_fast ship container cable_car subway aircraft wheelchair scooter drone" speed="22.35" length="8.60" shape="1274.94,1088.26 1275.66,1090.67 1275.42,1092.54 1275.17,1094.42 1275.89,1096.83"/>
    </edge>
    <edge id=":12198374934_0" function="internal">
        <lane id=":12198374934_0_0" index="0" disallow="pedestrian bicycle tram rail_urban rail rail_electric rail_fast ship container cable_car subway aircraft wheelchair scooter drone" speed="22.35" length="8.21" shape="1312.52,1144.51 1313.89,1146.49 1315.15,1147.63 1316.40,1148.77 1317.77,1150.75"/>
        <lane id=":12198374934_0_1" index="1" disallow="pedestrian bicycle tram rail_urban rail rail_electric rail_fast ship container cable_car subway aircraft wheelchair scooter drone" speed="22.35" length="8.21" shape="1309.71,1146.05 1311.09,1148.03 1312.34,1149.17 1313.59,1150.31 1314.97,1152.29"/>
        <lane id=":12198374934_0_2" index="2" disallow="pedestrian bicycle tram rail_urban rail rail_electric rail_fast ship container cable_car subway aircraft wheelchair scooter drone" speed="22.35" length="8.21" shape="1306.91,1147.59 1308.28,1149.57 1309.53,1150.71 1310.79,1151.85 1312.16,1153.83"/>
        <lane id=":12198374934_0_3" index="3" disallow="pedestrian bicycle tram rail_urban rail rail_electric rail_fast ship container cable_car subway aircraft wheelchair scooter drone" speed="22.35" length="8.21" shape="1304.10,1149.13 1305.48,1151.11 1306.73,1152.25 1307.98,1153.39 1309.35,1155.37"/>
        <lane id=":12198374934_0_4" index="4" disallow="pedestrian bicycle tram rail_urban rail rail_electric rail_fast ship container cable_car subway aircraft wheelchair scooter drone" speed="22.35" length="8.21" shape="1304.10,1149.13 1305.04,1151.35 1305.33,1153.02 1305.61,1154.69 1306.55,1156.91"/>
    </edge>
    <edge id=":12210048181_0" function="internal">
        <lane id=":12210048181_0_0" index="0" allow="pedestrian bicycle" speed="4.94" length="5.75" width="2.00" shape="1996.04,3198.39 1994.95,3199.14 1993.36,3200.21 1992.06,3201.30 1991.82,3202.07"/>
    </edge>
    <edge id=":12210048181_1" function="internal">
        <lane id=":12210048181_1_0" index="0" allow="pedestrian bicycle" speed="5.56" length="7.38" width="2.00" shape="1996.04,3198.39 1994.45,3199.30 1992.81,3199.51 1991.11,3199.01 1989.37,3197.80"/>
    </edge>
    <edge id=":12210048181_2" function="internal">
        <lane id=":12210048181_2_0" index="0" allow="pedestrian bicycle" speed="2.89" length="2.92" width="2.00" shape="1996.04,3198.39 1995.15,3198.47 1994.64,3198.24 1994.52,3197.69 1994.79,3196.83"/>
    </edge>
    <edge id=":12210048181_3" function="internal">
        <lane id=":12210048181_3_0" index="0" allow="pedestrian bicycle" speed="4.97" length="4.54" width="2.00" shape="1990.69,3196.30 1991.80,3197.09 1992.85,3197.44 1993.85,3197.35 1994.79,3196.83"/>
    </edge>
    <edge id=":12210048181_4" function="internal">
        <lane id=":12210048181_4_0" index="0" allow="pedestrian bicycle" speed="5.56" length="6.21" width="2.00" shape="1990.69,3196.30 1991.49,3197.74 1991.27,3199.17 1991.04,3200.60 1991.82,3202.07"/>
    </edge>
    <edge id=":12210048181_5" function="internal">
        <lane id=":12210048181_5_0" index="0" allow="pedestrian bicycle" speed="2.89" length="2.92" width="2.00" shape="1990.69,3196.30 1990.92,3197.17 1990.78,3197.71 1990.26,3197.92 1989.37,3197.80"/>
    </edge>
    <edge id=":12210048181_6" function="internal">
        <lane id=":12210048181_6_0" index="0" allow="pedestrian bicycle" speed="4.10" length="3.78" width="2.00" shape="1989.64,3200.98 1990.28,3200.25 1990.45,3199.48 1990.14,3198.66 1989.37,3197.80"/>
    </edge>
    <edge id=":12210048181_7" function="internal">
        <lane id=":12210048181_7_0" index="0" allow="pedestrian bicycle" speed="5.56" length="6.60" width="2.00" shape="1989.64,3200.98 1994.79,3196.83"/>
    </edge>
    <edge id=":12210048181_8" function="internal">
        <lane id=":12210048181_8_0" index="0" allow="pedestrian bicycle" speed="4.43" length="3.55" width="2.00" shape="1989.64,3200.98 1990.60,3200.44 1991.28,3200.44 1991.68,3200.98 1991.82,3202.07"/>
    </edge>
    <edge id=":12210048182_0" function="internal">
        <lane id=":12210048182_0_0" index="0" allow="pedestrian bicycle" speed="2.89" length="2.92" width="2.00" shape="1945.73,3159.28 1945.50,3158.41 1945.65,3157.87 1946.16,3157.66 1947.06,3157.78"/>
    </edge>
    <edge id=":12378318480_0" function="internal">
        <lane id=":12378318480_0_0" index="0" disallow="tram rail_urban rail rail_electric rail_fast ship container cable_car subway aircraft wheelchair scooter drone" speed="20.12" length="8.21" shape="3670.75,2209.99 3669.32,2208.05 3668.04,2206.94 3666.75,2205.84 3665.33,2203.90"/>
        <lane id=":12378318480_0_1" index="1" disallow="tram rail_urban rail rail_electric rail_fast ship container cable_car subway aircraft wheelchair scooter drone" speed="20.12" length="8.21" shape="3673.51,2208.38 3672.08,2206.43 3670.80,2205.33 3669.51,2204.22 3668.09,2202.28"/>
        <lane id=":12378318480_0_2" index="2" disallow="tram rail_urban rail rail_electric rail_fast ship container cable_car subway aircraft wheelchair scooter drone" speed="20.12" length="8.21" shape="3673.51,2208.38 3672.51,2206.18 3672.18,2204.52 3671.84,2202.86 3670.85,2200.66"/>
    </edge>
    <edge id=":12397231096_0" function="internal">
        <lane id=":12397231096_0_0" index="0" disallow="tram rail_urban rail rail_electric rail_fast ship container cable_car subway aircraft wheelchair scooter drone" speed="20.12" length="8.21" shape="2798.91,157.87 2797.52,155.90 2796.25,154.77 2794.99,153.65 2793.59,151.68"/>
        <lane id=":12397231096_0_1" index="1" disallow="tram rail_urban rail rail_electric rail_fast ship container cable_car subway aircraft wheelchair scooter drone" speed="20.12" length="8.21" shape="2798.91,157.87 2797.95,155.65 2797.65,153.99 2797.34,152.32 2796.38,150.11"/>
        <lane id=":12397231096_0_2" index="2" disallow="tram rail_urban rail rail_electric rail_fast ship container cable_car subway aircraft wheelchair scooter drone" speed="20.12" length="8.21" shape="2801.70,156.29 2800.74,154.08 2800.43,152.42 2800.13,150.75 2799.17,148.54"/>
    </edge>
    <edge id=":12397231098_0" function="internal">
        <lane id=":12397231098_0_0" index="0" disallow="tram rail_urban rail rail_electric rail_fast ship container cable_car subway aircraft wheelchair scooter drone" speed="20.12" length="8.20" shape="2779.88,127.41 2778.24,125.49 2776.53,124.67 2774.82,123.84 2773.21,121.91"/>
        <lane id=":12397231098_0_1" index="1" disallow="tram rail_urban rail rail_electric rail_fast ship container cable_car subway aircraft wheelchair scooter drone" speed="20.12" length="8.20" shape="2779.88,127.41 2776.02,120.38"/>
        <lane id=":12397231098_0_2" index="2" disallow="tram rail_urban rail rail_electric rail_fast ship container cable_car subway aircraft wheelchair scooter drone" speed="20.12" length="8.20" shape="2782.68,125.85 2778.83,118.86"/>
        <lane id=":12397231098_0_3" index="3" disallow="tram rail_urban rail rail_electric rail_fast ship container cable_car subway aircraft wheelchair scooter drone" speed="20.12" length="8.20" shape="2785.47,124.30 2781.64,117.33"/>
    </edge>
    <edge id=":12409296475_0" function="internal">
        <lane id=":12409296475_0_0" index="0" disallow="tram rail_urban rail rail_electric rail_fast ship container cable_car subway aircraft wheelchair scooter drone" speed="20.12" length="8.21" shape="3342.31,1396.95 3343.40,1399.10 3344.48,1400.41 3345.56,1401.71 3346.64,1403.87"/>
        <lane id=":12409296475_0_1" index="1" disallow="tram rail_urban rail rail_electric rail_fast ship container cable_car subway aircraft wheelchair scooter drone" speed="20.12" length="8.21" shape="3342.31,1396.95 3342.93,1399.28 3342.98,1400.98 3343.04,1402.67 3343.65,1405.00"/>
        <lane id=":12409296475_0_2" index="2" disallow="tram rail_urban rail rail_electric rail_fast ship container cable_car subway aircraft wheelchair scooter drone" speed="20.12" length="8.21" shape="3339.32,1398.08 3339.94,1400.41 3339.99,1402.11 3340.04,1403.80 3340.66,1406.13"/>
    </edge>
    <edge id=":12409300864_0" function="internal">
        <lane id=":12409300864_0_0" index="0" disallow="tram rail_urban rail rail_electric rail_fast ship container cable_car subway aircraft wheelchair scooter drone" speed="20.12" length="8.21" shape="2935.38,551.92 2934.14,549.85 2932.96,548.63 2931.78,547.42 2930.54,545.35"/>
        <lane id=":12409300864_0_1" index="1" disallow="tram rail_urban rail rail_electric rail_fast ship container cable_car subway aircraft wheelchair scooter drone" speed="20.12" length="8.21" shape="2935.38,551.92 2934.59,549.64 2934.41,547.96 2934.23,546.27 2933.44,543.99"/>
        <lane id=":12409300864_0_2" index="2" disallow="tram rail_urban rail rail_electric rail_fast ship container cable_car subway aircraft wheelchair scooter drone" speed="20.12" length="8.21" shape="2938.28,550.56 2937.49,548.28 2937.31,546.60 2937.12,544.92 2936.33,542.64"/>
    </edge>
    <edge id=":12409394277_0" function="internal">
        <lane id=":12409394277_0_0" index="0" disallow="tram rail_urban rail rail_electric rail_fast ship container cable_car subway aircraft wheelchair scooter drone" speed="20.12" length="8.21" shape="3261.17,1166.14 3262.19,1168.32 3263.23,1169.66 3264.27,1170.99 3265.29,1173.18"/>
        <lane id=":12409394277_0_1" index="1" disallow="tram rail_urban rail rail_electric rail_fast ship container cable_car subway aircraft wheelchair scooter drone" speed="20.12" length="8.21" shape="3261.17,1166.14 3261.71,1168.48 3261.72,1170.18 3261.72,1171.87 3262.27,1174.22"/>
        <lane id=":12409394277_0_2" index="2" disallow="tram rail_urban rail rail_electric rail_fast ship container cable_car subway aircraft wheelchair scooter drone" speed="20.12" length="8.21" shape="3258.14,1167.18 3258.69,1169.53 3258.69,1171.22 3258.70,1172.92 3259.24,1175.26"/>
    </edge>
    <edge id=":12409394278_0" function="internal">
        <lane id=":12409394278_0_0" index="0" disallow="tram rail_urban rail rail_electric rail_fast ship container cable_car subway aircraft wheelchair scooter drone" speed="20.12" length="8.21" shape="3312.41,1362.87 3311.39,1360.69 3310.34,1359.36 3309.29,1358.03 3308.27,1355.85"/>
        <lane id=":12409394278_0_1" index="1" disallow="tram rail_urban rail rail_electric rail_fast ship container cable_car subway aircraft wheelchair scooter drone" speed="20.12" length="8.21" shape="3315.43,1361.82 3314.41,1359.64 3313.36,1358.31 3312.31,1356.97 3311.29,1354.79"/>