<?xml version="1.0" encoding="UTF-8"?>

<!-- generated on 2025-04-18 14:35:08 by Eclipse SUMO polyconvert Version 1.22.0
<polyconvertConfiguration xmlns:xsi="http://www.w3.org/2001/XMLSchema-instance" xsi:noNamespaceSchemaLocation="http://sumo.dlr.de/xsd/polyconvertConfiguration.xsd">

    <input>
        <net-file value="osm.net.xml.gz"/>
        <osm-files value="osm_bbox.osm.xml.gz"/>
        <osm.keep-full-type value="true"/>
        <osm.merge-relations value="1"/>
        <type-file value="${SUMO_HOME}\data\typemap\osmPolyconvert.typ.xml"/>
    </input>

    <output>
        <output-file value="osm.poly.xml.gz"/>
    </output>

    <report>
        <verbose value="true"/>
    </report>

</polyconvertConfiguration>
-->

<additional xmlns:xsi="http://www.w3.org/2001/XMLSchema-instance" xsi:noNamespaceSchemaLocation="http://sumo.dlr.de/xsd/additional_file.xsd">
    <location netOffset="-290850.88,-4309470.27" convBoundary="-4.14,-14.92,4091.46,3967.17" origBoundary="-77.412270,38.909942,-77.366062,38.944982" projParameter="+proj=utm +zone=18 +ellps=WGS84 +datum=WGS84 +units=m +no_defs"/>

    <poly id="1009351032" type="amenity.toilets" color="237,199,199" fill="1" layer="-1.00" shape="201.994357,3073.952507 205.529652,3072.492828 202.888516,3066.109633 199.344257,3067.558443 201.994357,3073.952507"/>
    <poly id="1009351032#1" type="building.yes" color="255,230,230" fill="1" layer="-1.00" shape="201.994357,3073.952507 205.529652,3072.492828 202.888516,3066.109633 199.344257,3067.558443 201.994357,3073.952507"/>
    <poly id="1060908290" type="natural.water" color="181,209,209" fill="1" layer="-4.00" shape="767.551607,1180.421108 763.211910,1179.380448 759.549535,1177.044652 756.563058,1174.346724 754.980913,1171.600654 752.462911,1173.177578 750.598744,1173.226741 750.071881,1170.686083 750.634389,1165.695423 750.636643,1161.174915 751.122731,1157.563508 751.234776,1152.929038 751.699498,1148.507401 751.659714,1142.721833 751.081443,1138.560944 753.796975,1135.590467 757.114805,1133.414900 760.697738,1136.685758 764.369203,1139.365625 769.809901,1138.067049 769.784262,1150.585033 770.080460,1161.817253 772.024205,1169.063131 772.624232,1174.378549 771.587648,1179.159573 767.551607,1180.421108"/>
    <poly id="1064189335" type="man_made.pipeline" color="255,230,230" fill="0" layer="-1.00" shape="769.127947,116.986878 797.342386,170.110780 806.352982,187.022067 1341.038467,1182.167468 1400.892254,1277.666136 1961.284860,2328.480179"/>
    <poly id="1064359348" type="man_made.pipeline" color="255,230,230" fill="0" layer="-1.00" shape="1990.014281,161.332431 2211.406808,588.302049 2226.634078,612.126866 2248.558263,631.911289 2507.395377,910.078786 2788.245470,1211.902180 3114.427166,1574.082275 3417.324778,1902.450189 3721.918586,2240.957664 4063.228967,2608.053998"/>
    <poly id="1064359349" type="man_made.pipeline" color="255,230,230" fill="0" layer="-1.00" shape="3849.030822,2408.692901 3501.197225,2028.002446 3236.385306,1731.247857 2760.037169,1212.838824 2567.573039,1000.545677 2329.656860,752.727541 2207.363642,618.140296 2189.046310,588.976404 2085.452578,381.708144 1944.160652,105.001985"/>
    <poly id="1078537776" type="landuse.construction" color="194,194,130" fill="1" layer="-3.00" shape="321.009110,467.125125 337.021479,377.225882 415.440097,359.160826 434.558474,413.123547 432.594962,462.322844 420.581484,492.073035 321.009110,467.125125"/>
    <poly id="1090263415" type="amenity.shelter" color="237,199,199" fill="1" layer="-1.00" shape="403.795714,3040.359981 407.911022,3037.541140 404.618516,3032.763380 400.503207,3035.582224 403.795714,3040.359981"/>
    <poly id="1090263415#1" type="building.roof" color="255,230,230" fill="1" layer="-1.00" shape="403.795714,3040.359981 407.911022,3037.541140 404.618516,3032.763380 400.503207,3035.582224 403.795714,3040.359981"/>
    <poly id="1090263416" type="amenity.shelter" color="237,199,199" fill="1" layer="-1.00" shape="398.765581,2964.922129 401.706959,2962.978436 400.044754,2960.478910 397.103082,2962.411505 398.765581,2964.922129"/>
    <poly id="1090263416#1" type="building.roof" color="255,230,230" fill="1" layer="-1.00" shape="398.765581,2964.922129 401.706959,2962.978436 400.044754,2960.478910 397.103082,2962.411505 398.765581,2964.922129"/>
    <poly id="1090263419" type="landuse.allotments" color="194,194,130" fill="1" layer="-3.00" shape="337.710805,2965.481055 331.657188,2957.000006 319.341148,2939.688022 328.105305,2934.213858 343.230567,2955.083512 341.034564,2956.674316 344.027281,2960.937958 337.710805,2965.481055"/>
    <poly id="1090263422" type="building.shed" color="255,230,230" fill="1" layer="-1.00" shape="333.615566,3012.693390 336.473453,3010.874053 339.206392,3015.155668 336.348212,3016.963906 333.615566,3012.693390"/>
    <poly id="1090263423" type="leisure.playground" color="207,245,201" fill="1" layer="-2.00" shape="336.242346,3032.316341 341.895961,3028.623777 338.371437,3023.274622 335.241737,3025.312176 336.705906,3027.539255 334.181696,3029.183168 336.242346,3032.316341"/>
    <poly id="1090263425" type="building.yes" color="255,230,230" fill="1" layer="-1.00" shape="225.417131,3269.424091 234.257189,3266.835562 232.247596,3260.058020 223.416199,3262.646321 225.417131,3269.424091"/>
    <poly id="1090263426" type="building.yes" color="255,230,230" fill="1" layer="-1.00" shape="226.542362,3270.971492 235.804815,3268.282935 239.419542,3280.649182 230.156810,3283.326636 226.542362,3270.971492"/>
    <poly id="1090284951" type="amenity.shelter" color="237,199,199" fill="1" layer="-1.00" shape="471.771425,2977.398269 474.436041,2974.828828 471.038584,2971.331099 468.373675,2973.889442 471.771425,2977.398269"/>
    <poly id="1090284951#1" type="building.roof" color="255,230,230" fill="1" layer="-1.00" shape="471.771425,2977.398269 474.436041,2974.828828 471.038584,2971.331099 468.373675,2973.889442 471.771425,2977.398269"/>
    <poly id="1090284952" type="amenity.shelter" color="237,199,199" fill="1" layer="-1.00" shape="477.988081,2983.520462 481.412122,2987.039704 484.144325,2984.401840 482.494598,2982.701659 480.720285,2980.882596 477.988081,2983.520462"/>
    <poly id="1090284952#1" type="building.roof" color="255,230,230" fill="1" layer="-1.00" shape="477.988081,2983.520462 481.412122,2987.039704 484.144325,2984.401840 482.494598,2982.701659 480.720285,2980.882596 477.988081,2983.520462"/>
    <poly id="1090284953" type="amenity.shelter" color="237,199,199" fill="1" layer="-1.00" shape="456.581443,3001.334998 461.533273,2997.672177 465.841245,3003.456059 460.889418,3007.118878 456.581443,3001.334998"/>
    <poly id="1090284953#1" type="building.roof" color="255,230,230" fill="1" layer="-1.00" shape="456.581443,3001.334998 461.533273,2997.672177 465.841245,3003.456059 460.889418,3007.118878 456.581443,3001.334998"/>
    <poly id="1090284954" type="amenity.shelter" color="237,199,199" fill="1" layer="-1.00" shape="464.910987,2987.620109 468.753512,2984.653015 465.592487,2980.582594 461.749961,2983.549689 464.910987,2987.620109"/>
    <poly id="1090284954#1" type="building.roof" color="255,230,230" fill="1" layer="-1.00" shape="464.910987,2987.620109 468.753512,2984.653015 465.592487,2980.582594 461.749961,2983.549689 464.910987,2987.620109"/>
    <poly id="1093050220" type="building.detached" color="255,230,230" fill="1" layer="-1.00" shape="1635.411254,139.746118 1633.139937,140.161159 1632.534778,136.611811 1624.822179,138.002703 1625.624086,142.435417 1621.824009,143.123836 1622.706363,147.976490 1623.863700,147.768399 1624.869052,153.339757 1637.460999,151.054411 1635.411254,139.746118"/>
    <poly id="1093050234" type="building.detached" color="255,230,230" fill="0" layer="-1.00" shape="1117.019804,60.364626 1126.128504,57.614803"/>
    <poly id="1093050236" type="building.detached" color="255,230,230" fill="1" layer="-1.00" shape="941.712717,370.736944 937.078508,361.496055 938.080492,360.992071 935.305399,355.456281 923.632140,361.306048 926.736954,367.499551 928.347007,366.690773 932.651511,375.273939 941.712717,370.736944"/>
    <poly id="1093050256" type="building.detached" color="255,230,230" fill="1" layer="-1.00" shape="1277.997516,188.277098 1273.731845,181.158826 1265.709757,185.956859 1264.357557,183.704444 1260.068921,186.271812 1265.687093,195.653591 1277.997516,188.277098"/>
    <poly id="1093050264" type="building.detached" color="255,230,230" fill="1" layer="-1.00" shape="1972.619213,44.258107 1967.445881,35.264057 1962.119895,38.324691 1963.038213,39.922188 1954.677406,44.728362 1958.923760,52.125135 1972.619213,44.258107"/>
    <poly id="1093050277" type="building.detached" color="255,230,230" fill="1" layer="-1.00" shape="1606.154828,72.163886 1601.877304,66.567377 1588.181622,77.056249 1592.917144,83.240485 1602.274466,76.075349 1601.816181,75.476516 1606.154828,72.163886"/>
    <poly id="1093050278" type="building.detached" color="255,230,230" fill="1" layer="-1.00" shape="1629.503189,69.063010 1625.607287,58.169705 1610.639772,63.516226 1613.469022,71.460946 1621.730859,68.511805 1622.780183,71.460838 1629.503189,69.063010"/>
    <poly id="1093050279" type="building.detached" color="255,230,230" fill="1" layer="-1.00" shape="1050.428606,95.048774 1041.117972,88.807575 1037.744338,93.827770 1039.131219,94.757540 1033.603569,102.999859 1041.536279,108.322148 1050.428606,95.048774"/>
    <poly id="1093050281" type="building.detached" color="255,230,230" fill="1" layer="-1.00" shape="1018.321206,274.667670 1019.074112,264.374138 1020.300013,264.464032 1020.779412,257.953984 1009.894006,257.152158 1008.662014,273.966839 1018.321206,274.667670"/>
    <poly id="1093050302" type="building.detached" color="255,230,230" fill="1" layer="-1.00" shape="2060.156374,164.037086 2052.519095,157.373292 2041.886697,169.535940 2049.515594,176.211050 2060.156374,164.037086"/>
    <poly id="1093050320" type="building.detached" color="255,230,230" fill="1" layer="-1.00" shape="1337.324292,208.997148 1328.646548,207.670361 1326.668867,220.572786 1335.338217,221.910898 1337.324292,208.997148"/>
    <poly id="1093050338" type="building.detached" color="255,230,230" fill="0" layer="-1.00" shape="2022.191175,28.553762 2041.409370,29.105349"/>
    <poly id="1093050352" type="building.detached" color="255,230,230" fill="1" layer="-1.00" shape="1234.424725,251.520588 1233.427195,242.628156 1213.493213,244.874061 1214.375436,252.681070 1220.769102,251.957544 1220.884430,253.042965 1234.424725,251.520588"/>
    <poly id="1093050384" type="building.detached" color="255,230,230" fill="1" layer="-1.00" shape="1204.600246,114.637715 1203.699032,102.810585 1196.744709,103.337840 1196.903955,105.432815 1186.681661,106.423679 1187.371154,115.479706 1192.601845,115.075534 1192.960369,119.797552 1199.031334,119.337958 1198.711383,115.092513 1204.600246,114.637715"/>
    <poly id="1093050400" type="building.detached" color="255,230,230" fill="1" layer="-1.00" shape="909.513706,192.655932 910.081354,192.463270 907.882312,186.068199 896.874456,189.845715 899.177374,196.560142 900.183473,196.211540 903.153827,204.874273 912.596589,201.637797 909.513706,192.655932"/>
    <poly id="1093050410" type="building.detached" color="255,230,230" fill="1" layer="-1.00" shape="1333.142215,177.330890 1322.647476,180.827750 1327.716376,196.055016 1335.389573,193.498663 1332.337195,184.338156 1335.167393,183.397427 1333.142215,177.330890"/>
    <poly id="1093050413" type="building.detached" color="255,230,230" fill="1" layer="-1.00" shape="1208.331456,215.899213 1206.139817,208.126652 1197.569407,210.551244 1196.765367,207.695764 1190.554912,209.447410 1193.541643,220.064577 1208.331456,215.899213"/>
    <poly id="1093050435" type="building.detached" color="255,230,230" fill="1" layer="-1.00" shape="2585.863467,98.836088 2584.718358,87.226336 2578.278829,87.861091 2578.503050,90.132077 2567.493593,91.219464 2568.405831,100.558455 2585.863467,98.836088"/>
    <poly id="1093050453" type="building.detached" color="255,230,230" fill="1" layer="-1.00" shape="2474.077436,147.894749 2472.458952,144.405177 2471.284583,144.957891 2470.033566,142.247278 2466.098284,144.071693 2467.285119,146.650705 2459.208766,150.393773 2464.588401,161.992755 2462.890873,162.781282 2466.164850,169.848308 2476.701778,164.963573 2473.014081,157.007728 2476.409142,155.430679 2473.125627,148.330578 2474.077436,147.894749"/>
    <poly id="1093050454" type="building.detached" color="255,230,230" fill="1" layer="-1.00" shape="1222.946360,109.745758 1233.159786,105.778582 1229.762233,97.027025 1227.451440,97.920808 1227.004544,96.766361 1218.870100,99.934709 1219.382078,101.254044 1217.397893,102.028172 1216.485879,99.686438 1210.069431,102.187630 1214.416041,113.368792 1217.035797,112.344704 1219.009370,117.435186 1225.030998,115.099880 1222.946360,109.745758"/>
    <poly id="1093050456" type="building.detached" color="255,230,230" fill="1" layer="-1.00" shape="1157.014558,216.316409 1152.937204,210.092882 1138.068857,219.847086 1142.154891,226.070377 1157.014558,216.316409"/>
    <poly id="1093050476" type="building.detached" color="255,230,230" fill="1" layer="-1.00" shape="923.980677,330.397970 923.410599,330.168640 913.314536,335.610349 921.051555,349.978536 931.489784,344.350115 923.980677,330.397970"/>
    <poly id="1093050477" type="building.detached" color="255,230,230" fill="1" layer="-1.00" shape="1256.361833,86.231438 1248.630033,79.304295 1244.734918,83.638388 1245.614728,84.426035 1238.254798,92.627534 1245.132802,98.766335 1256.361833,86.231438"/>
    <poly id="1093050479" type="building.detached" color="255,230,230" fill="1" layer="-1.00" shape="2500.766915,66.141224 2498.034194,60.526101 2496.123620,61.464574 2491.373730,51.715012 2482.642604,55.974962 2490.124941,71.328540 2500.766915,66.141224"/>
    <poly id="1093050493" type="building.detached" color="255,230,230" fill="1" layer="-1.00" shape="2603.108215,38.154604 2605.854294,28.342401 2588.922023,23.609181 2585.723439,35.032560 2593.101238,37.094404 2593.553762,35.483235 2603.108215,38.154604"/>
    <poly id="1093050498" type="building.detached" color="255,230,230" fill="1" layer="-1.00" shape="2485.675411,190.229640 2481.803002,190.475271 2481.127814,179.586271 2469.761468,180.294403 2470.818263,197.148762 2486.048609,196.206324 2485.675411,190.229640"/>
    <poly id="1093050502" type="building.detached" color="255,230,230" fill="1" layer="-1.00" shape="1670.701798,111.264150 1661.194670,105.449466 1657.649993,111.240220 1659.872254,112.592432 1655.137937,120.335864 1662.431178,124.787001 1670.701798,111.264150"/>
    <poly id="1093050535" type="building.detached" color="255,230,230" fill="1" layer="-1.00" shape="1060.389491,68.963468 1052.334528,67.898244 1051.645995,73.058773 1050.757679,72.937772 1049.006243,86.178643 1057.958174,87.364637 1060.389491,68.963468"/>
    <poly id="1093050541" type="building.detached" color="255,230,230" fill="1" layer="-1.00" shape="2559.446641,148.550823 2559.506058,147.172056 2562.833369,147.318334 2563.594331,130.283191 2557.921328,130.031620 2557.779119,133.222920 2551.063494,132.920858 2550.840528,138.002386 2544.932816,137.734746 2544.625617,144.573313 2550.654727,144.837779 2550.572518,146.672511 2554.195243,146.833277 2554.129765,148.312161 2559.446641,148.550823"/>
    <poly id="1093050546" type="building.detached" color="255,230,230" fill="1" layer="-1.00" shape="2541.084573,50.926461 2541.327515,49.265233 2544.664150,49.766672 2546.625909,36.509695 2534.734773,34.743566 2534.004209,39.660657 2527.819154,38.744986 2526.556779,47.218973 2536.278493,48.653062 2536.049414,50.180649 2541.084573,50.926461"/>
    <poly id="1093050555" type="building.detached" color="255,230,230" fill="1" layer="-1.00" shape="874.832179,234.264706 864.582750,239.488377 871.811725,253.669992 881.179374,248.902725 878.049932,242.765418 878.931990,242.320121 874.832179,234.264706"/>
    <poly id="1093050566" type="building.detached" color="255,230,230" fill="1" layer="-1.00" shape="2501.429725,92.490889 2503.124437,92.257773 2503.170416,80.739060 2492.591241,80.693539 2492.542989,92.456657 2494.270099,92.467037 2494.240654,98.643059 2501.400275,98.666911 2501.429725,92.490889"/>
    <poly id="1093050575" type="building.detached" color="255,230,230" fill="1" layer="-1.00" shape="1400.327175,154.662070 1393.381400,143.626884 1388.131479,146.930270 1390.531274,150.743424 1382.216670,155.971074 1388.157310,165.411096 1393.791607,161.875472 1392.396958,159.657473 1400.327175,154.662070"/>
    <poly id="1093050597" type="building.detached" color="255,230,230" fill="1" layer="-1.00" shape="1302.381707,170.131753 1298.231868,163.787890 1285.051937,172.420055 1289.201783,178.763911 1302.381707,170.131753"/>
    <poly id="1093050604" type="building.detached" color="255,230,230" fill="1" layer="-1.00" shape="1107.174423,430.099252 1111.129502,425.085986 1112.325842,426.031887 1115.818900,421.597226 1114.215205,420.339952 1117.481735,416.200029 1109.577735,409.977285 1101.080148,420.763432 1101.948638,421.451400 1099.748906,424.252659 1107.174423,430.099252"/>
    <poly id="1093050618" type="building.detached" color="255,230,230" fill="1" layer="-1.00" shape="2052.843214,215.119181 2048.057276,205.337476 2042.848080,207.884098 2042.454265,207.094740 2033.732198,211.354976 2038.912257,221.937129 2052.843214,215.119181"/>
    <poly id="1093050620" type="building.detached" color="255,230,230" fill="1" layer="-1.00" shape="2112.547811,61.194725 2112.592324,57.261821 2125.331693,57.283582 2125.426738,48.984461 2119.428768,48.919416 2119.436760,48.230597 2106.494437,48.080881 2106.341438,61.124042 2112.547811,61.194725"/>
    <poly id="1093050622" type="building.detached" color="255,230,230" fill="1" layer="-1.00" shape="1129.217933,162.480676 1129.550434,159.617504 1138.612076,160.689629 1139.571287,152.623139 1123.694031,150.752987 1122.402045,161.671553 1129.217933,162.480676"/>
    <poly id="1093050644" type="building.detached" color="255,230,230" fill="1" layer="-1.00" shape="1438.735773,117.400538 1435.102456,110.565451 1421.648787,117.705164 1426.807281,127.432327 1432.395795,124.464377 1430.861957,121.572523 1438.735773,117.400538"/>
    <poly id="1093050655" type="building.detached" color="255,230,230" fill="1" layer="-1.00" shape="1177.361272,120.585577 1177.137460,117.026218 1180.178009,116.824048 1179.573384,107.365947 1168.735899,108.062033 1168.675806,107.097332 1162.005317,107.528296 1162.679020,117.961968 1172.191185,117.356276 1172.423379,120.904309 1177.361272,120.585577"/>
    <poly id="1093050666" type="building.detached" color="255,230,230" fill="1" layer="-1.00" shape="2008.385528,122.622016 2009.352626,122.107983 2003.482996,111.044117 1995.053109,115.529971 2000.903951,126.538791 2001.357440,126.293668 2004.187004,131.617332 2011.187909,127.901969 2008.385528,122.622016"/>
    <poly id="1093050682" type="building.detached" color="255,230,230" fill="1" layer="-1.00" shape="1319.860466,256.348709 1312.358466,248.582473 1305.774863,254.953114 1302.991714,252.071920 1298.041157,256.855798 1308.317347,267.492345 1319.860466,256.348709"/>
    <poly id="1093050685" type="building.detached" color="255,230,230" fill="1" layer="-1.00" shape="951.426877,177.179772 940.770444,182.769470 948.015687,196.584197 956.780527,191.988400 952.651060,184.122544 954.551311,183.128423 951.426877,177.179772"/>
    <poly id="1093050693" type="building.detached" color="255,230,230" fill="1" layer="-1.00" shape="1129.743130,82.854054 1130.613023,73.701458 1132.839997,73.909415 1133.500070,67.005894 1121.616500,65.874750 1121.189645,70.428623 1117.640476,70.099971 1117.068906,76.079310 1120.992417,76.453642 1120.469279,81.965224 1129.743130,82.854054"/>
    <poly id="1093050704" type="building.detached" color="255,230,230" fill="1" layer="-1.00" shape="2408.079938,244.915067 2401.025449,237.958052 2389.106674,250.053896 2396.704350,257.540914 2400.795671,253.391103 2400.243524,252.850216 2408.079938,244.915067"/>
    <poly id="1093050708" type="building.detached" color="255,230,230" fill="1" layer="-1.00" shape="1218.457418,321.757270 1214.259868,314.259610 1203.176991,320.459936 1207.374549,327.957591 1218.457418,321.757270"/>
    <poly id="1093050711" type="building.detached" color="255,230,230" fill="1" layer="-1.00" shape="1745.400707,73.629312 1746.773232,68.062194 1743.375765,67.229486 1743.846270,65.317905 1743.208575,65.156931 1746.078107,53.475204 1737.815534,51.437351 1734.992218,62.895736 1734.538085,62.785479 1732.484227,71.158244 1741.890639,73.465957 1742.046891,72.806565 1745.400707,73.629312"/>
    <poly id="1093050725" type="building.detached" color="255,230,230" fill="1" layer="-1.00" shape="2630.189434,55.695113 2633.745659,51.648270 2637.262577,54.732865 2641.720291,49.651779 2644.650958,52.218578 2648.443330,47.910123 2635.432227,36.488187 2627.603548,45.400255 2628.633823,46.306289 2624.656193,50.830618 2630.189434,55.695113"/>
    <poly id="1093050753" type="building.detached" color="255,230,230" fill="1" layer="-1.00" shape="1712.686085,113.649760 1710.990791,96.334567 1703.642221,97.049426 1704.542444,106.222102 1700.119375,106.649165 1700.662456,112.132701 1705.578641,111.648270 1705.839906,114.329221 1712.686085,113.649760"/>
    <poly id="1093050764" type="building.detached" color="255,230,230" fill="1" layer="-1.00" shape="1104.065765,367.050569 1097.523607,375.974854 1110.795970,385.710393 1117.337841,376.775020 1104.065765,367.050569"/>
    <poly id="1093050781" type="building.detached" color="255,230,230" fill="1" layer="-1.00" shape="1741.590986,151.009268 1733.825261,165.918229 1742.042488,170.200802 1749.808224,155.291849 1741.590986,151.009268"/>
    <poly id="1093050785" type="building.detached" color="255,230,230" fill="1" layer="-1.00" shape="2531.891536,12.615861 2522.058396,13.228295 2522.311128,17.253372 2519.356678,17.430558 2519.952762,26.955517 2532.731660,26.166123 2531.891536,12.615861"/>
    <poly id="1093050786" type="building.detached" color="255,230,230" fill="1" layer="-1.00" shape="983.134155,313.890223 988.184169,305.971420 989.331338,306.696466 993.362608,300.292795 980.574293,292.144055 977.116222,297.577458 980.434582,299.689193 974.785071,308.567861 983.134155,313.890223"/>
    <poly id="1093050793" type="building.detached" color="255,230,230" fill="1" layer="-1.00" shape="1275.599417,287.478435 1271.464068,280.034645 1261.227027,285.735051 1266.190896,294.656449 1271.750008,291.566973 1270.921204,290.078260 1275.599417,287.478435"/>
    <poly id="1093050803" type="building.detached" color="255,230,230" fill="1" layer="-1.00" shape="1356.151989,110.196989 1355.791889,99.799501 1345.674063,100.143225 1346.023753,110.474347 1344.229007,110.532635 1344.447935,116.879899 1359.212884,116.380692 1359.004389,110.099794 1356.151989,110.196989"/>
    <poly id="1093050818" type="building.detached" color="255,230,230" fill="1" layer="-1.00" shape="2045.246681,86.803610 2049.869683,80.096269 2051.398382,81.144666 2055.578367,75.082012 2044.796802,67.645388 2035.994112,80.426493 2045.246681,86.803610"/>
    <poly id="1093050826" type="building.detached" color="255,230,230" fill="1" layer="-1.00" shape="1053.852995,345.759142 1057.331126,344.712395 1055.667521,339.202839 1041.350647,343.522659 1043.222859,349.704229 1044.591682,349.290561 1047.434581,358.723054 1056.904480,355.863656 1053.852995,345.759142"/>
    <poly id="1093050839" type="building.detached" color="255,230,230" fill="1" layer="-1.00" shape="1320.882197,60.877607 1322.692630,61.085462 1323.707835,51.840229 1322.002044,51.651836 1322.203626,49.747294 1312.534875,48.690915 1311.084756,61.857136 1312.015842,61.954829 1311.343273,68.058972 1319.654542,68.973332 1320.882197,60.877607"/>
    <poly id="1093050841" type="building.detached" color="255,230,230" fill="1" layer="-1.00" shape="1208.140428,66.463730 1213.209846,58.278029 1214.921068,59.332577 1219.016776,52.727430 1209.419285,46.793465 1206.181151,52.021043 1202.855549,49.964935 1200.142136,54.356817 1203.511972,56.445080 1200.315745,61.616025 1208.140428,66.463730"/>
    <poly id="1093050842" type="building.detached" color="255,230,230" fill="1" layer="-1.00" shape="948.117885,138.526709 954.850299,130.563580 956.297108,131.791639 960.774219,126.497993 948.491089,116.125745 943.930185,121.532671 947.009715,124.128276 940.370060,131.989009 948.117885,138.526709"/>
    <poly id="1093050871" type="building.detached" color="255,230,230" fill="1" layer="-1.00" shape="1775.171338,114.220469 1769.139686,99.640201 1759.061639,103.814143 1761.489406,109.692498 1764.382347,108.494829 1767.977574,117.196962 1775.171338,114.220469"/>
    <poly id="1093050894" type="building.detached" color="255,230,230" fill="1" layer="-1.00" shape="1599.872712,110.191406 1601.967185,108.659227 1602.795286,109.792576 1612.671426,102.558296 1608.756455,97.218825 1606.636545,98.773882 1601.191137,91.331013 1594.499334,96.238151 1600.052594,103.822571 1596.893686,106.126844 1599.872712,110.191406"/>
    <poly id="1093050918" type="building.detached" color="255,230,230" fill="1" layer="-1.00" shape="2607.347113,87.468029 2611.433703,83.129653 2605.979644,77.974333 2601.926869,82.278508 2601.188271,81.575881 2598.739903,84.183259 2597.352032,82.875631 2593.696102,86.758499 2594.986265,87.979827 2592.630389,90.473724 2602.603911,99.886926 2611.030267,90.936998 2607.347113,87.468029"/>
    <poly id="1093050928" type="building.detached" color="255,230,230" fill="1" layer="-1.00" shape="2476.886402,14.042666 2475.081297,14.700721 2467.957530,24.016577 2479.038179,20.006168 2476.886402,14.042666"/>
    <poly id="1093050939" type="building.detached" color="255,230,230" fill="1" layer="-1.00" shape="957.918394,294.162421 952.908369,284.820354 954.722464,283.850714 951.574387,277.991540 939.774825,284.322190 943.032815,290.400598 944.213403,289.758631 949.113823,298.892552 957.918394,294.162421"/>
    <poly id="1093050953" type="building.detached" color="255,230,230" fill="1" layer="-1.00" shape="856.694732,156.828970 864.289352,149.975923 865.138604,150.919830 869.986786,146.538208 858.813794,134.170952 854.143328,138.381296 857.728005,142.363004 849.964043,149.376014 856.694732,156.828970"/>
    <poly id="1093050963" type="building.detached" color="255,230,230" fill="1" layer="-1.00" shape="1223.046632,165.021107 1221.702688,156.815296 1218.099753,157.409872 1217.470056,153.594629 1211.983417,154.494213 1212.727483,159.028382 1204.268608,160.417108 1205.497912,167.892891 1223.046632,165.021107"/>
    <poly id="1093050971" type="building.detached" color="255,230,230" fill="1" layer="-1.00" shape="983.184739,444.637143 972.830213,450.474326 980.631038,464.307756 989.053310,459.565503 984.401859,451.313544 986.334101,450.218623 983.184739,444.637143"/>
    <poly id="1093050989" type="building.detached" color="255,230,230" fill="1" layer="-1.00" shape="2400.895002,295.671259 2397.139118,290.749327 2398.627879,289.610834 2391.790554,280.671177 2384.482882,286.260133 2386.010158,288.252686 2381.177979,291.944304 2386.739543,299.218017 2391.426919,295.630149 2394.939966,300.225233 2400.895002,295.671259"/>
    <poly id="1093051008" type="building.detached" color="255,230,230" fill="1" layer="-1.00" shape="1464.705602,83.620311 1455.985863,71.121174 1446.467530,77.768709 1450.074157,82.927396 1453.005607,80.884492 1458.118435,88.213833 1464.705602,83.620311"/>
    <poly id="1093051024" type="building.detached" color="255,230,230" fill="1" layer="-1.00" shape="1122.338431,253.225746 1129.386364,246.698335 1119.999450,236.560614 1119.423514,237.097786 1115.627392,232.988256 1109.309435,238.896704 1115.123751,245.174454 1111.608313,248.432388 1115.895387,253.062116 1119.283964,249.929697 1122.338431,253.225746"/>
    <poly id="1093051042" type="building.detached" color="255,230,230" fill="1" layer="-1.00" shape="2458.700770,280.298447 2461.383546,281.350059 2463.799923,275.200470 2451.078327,270.201977 2448.572087,276.564945 2449.781808,277.033106 2445.900946,286.908381 2454.738699,290.386866 2458.700770,280.298447"/>
    <poly id="1093051045" type="building.detached" color="255,230,230" fill="1" layer="-1.00" shape="1680.189612,88.901793 1674.204545,84.038677 1662.939893,97.884456 1668.916287,102.747791 1680.189612,88.901793"/>
    <poly id="1093051054" type="building.detached" color="255,230,230" fill="1" layer="-1.00" shape="1247.482336,155.104289 1243.909837,145.968595 1243.282937,146.218324 1241.766700,142.348651 1237.094278,144.181976 1238.611101,148.073847 1232.701644,150.383980 1233.380801,152.120973 1227.677424,154.347943 1230.552564,161.713797 1247.482336,155.104289"/>
    <poly id="1093051068" type="building.detached" color="255,230,230" fill="1" layer="-1.00" shape="2431.331378,215.229928 2423.497614,210.992172 2416.279451,224.320036 2419.307155,225.951262 2418.835811,226.841009 2425.903822,230.665630 2428.957892,225.010255 2426.695932,223.792156 2431.331378,215.229928"/>
    <poly id="1093051069" type="building.detached" color="255,230,230" fill="1" layer="-1.00" shape="2389.891293,19.627381"/>
    <poly id="1093051073" type="building.detached" color="255,230,230" fill="1" layer="-1.00" shape="1009.152618,392.773524 1000.712636,378.723657 990.615909,384.798368 994.218634,390.789968 996.661530,389.315080 1001.498800,397.373340 1009.152618,392.773524"/>
    <poly id="1093051082" type="building.detached" color="255,230,230" fill="1" layer="-1.00" shape="2089.039525,118.154288 2078.425507,115.122558 2076.136252,123.134859 2074.344029,122.626479 2072.213385,130.068190 2084.619607,133.608293 2089.039525,118.154288"/>
    <poly id="1093051091" type="building.detached" color="255,230,230" fill="1" layer="-1.00" shape="1153.497203,257.425993 1150.399094,249.832791 1134.344547,256.386173 1137.442670,263.979370 1153.497203,257.425993"/>