<?xml version="1.0" encoding="UTF-8"?>

<!-- generated on 2025-04-18 14:35:10.446433 by osmWebWizard.py v1_22_0+0002-63e50f52594
<configuration>
    <net-file value="C:\Users\jones\2025-04-18-14-34-55\osm.net.xml.gz"/>
    <output-trip-file value="C:\Users\jones\2025-04-18-14-34-55\osm.passenger.trips.xml"/>
    <route-file value="C:\Users\jones\2025-04-18-14-34-55\osm.passenger.rou.xml"/>
    <prefix value="veh"/>
    <trip-attributes value="departLane=&quot;best&quot;"/>
    <fringe-start-attributes value="departSpeed=&quot;max&quot;"/>
    <vehicle-class value="passenger"/>
    <lanes value="True"/>
    <fringe-factor value="5"/>
    <allow-fringe.min-length value="1000.0"/>
    <via-edge-types value="highway.motorway,highway.motorway_link,highway.trunk_link,highway.primary_link,highway.secondary_link,highway.tertiary_link"/>
    <min-distance value="300.0"/>
    <min-distance.fringe value="10.0"/>
    <remove-loops value="True"/>
    <validate value="True"/>
    <insertion-density value="12.0"/>
</configuration>
-->

<!-- generated on 2025-04-18 14:35:10 by Eclipse SUMO duarouter Version 1.22.0
<duarouterConfiguration xmlns:xsi="http://www.w3.org/2001/XMLSchema-instance" xsi:noNamespaceSchemaLocation="http://sumo.dlr.de/xsd/duarouterConfiguration.xsd">

    <input>
        <net-file value="C:\Users\jones\2025-04-18-14-34-55\osm.net.xml.gz"/>
        <route-files value="C:\Users\jones\2025-04-18-14-34-55\osm.passenger.trips.xml"/>
    </input>

    <output>
        <output-file value="C:\Users\jones\2025-04-18-14-34-55\osm.passenger.trips.xml.tmp"/>
        <alternatives-output value="NUL"/>
        <write-trips value="true"/>
    </output>

    <processing>
        <remove-loops value="true"/>
    </processing>

    <time>
        <begin value="0.0"/>
        <end value="3600.0"/>
    </time>

    <report>
        <no-warnings value="true"/>
        <ignore-errors value="true"/>
        <no-step-log value="true"/>
    </report>

</duarouterConfiguration>
-->

<routes xmlns:xsi="http://www.w3.org/2001/XMLSchema-instance" xsi:noNamespaceSchemaLocation="http://sumo.dlr.de/xsd/routes_file.xsd">
    <vType id="veh_passenger" vClass="passenger"/>
    <trip id="veh0" type="veh_passenger" depart="0.00" departLane="best" from="173228856" to="141900800"/>
    <trip id="veh2" type="veh_passenger" depart="7.11" departLane="best" departSpeed="max" from="228470926" to="173228850#0"/>
    <trip id="veh3" type="veh_passenger" depart="10.66" departLane="best" from="-173011696#0" to="-228470696#0"/>
    <trip id="veh4" type="veh_passenger" depart="14.22" departLane="best" from="1341836049" to="-141900800"/>
    <trip id="veh6" type="veh_passenger" depart="21.33" departLane="best" from="173870623" to="-141900842"/>
    <trip id="veh8" type="veh_passenger" depart="28.44" departLane="best" from="543215373" to="1063362007#1"/>
    <trip id="veh9" type="veh_passenger" depart="31.99" departLane="best" from="543215371#0" to="173228852"/>
    <trip id="veh10" type="veh_passenger" depart="35.55" departLane="best" from="1340221062" to="-8828535#2"/>
    <trip id="veh11" type="veh_passenger" depart="39.10" departLane="best" departSpeed="max" from="8824805" to="1340221061"/>
    <trip id="veh12" type="veh_passenger" depart="42.65" departLane="best" from="-173228855" to="-228470700#0"/>
    <trip id="veh13" type="veh_passenger" depart="46.21" departLane="best" departSpeed="max" from="543215378" to="-173011701#0"/>
    <trip id="veh15" type="veh_passenger" depart="53.32" departLane="best" from="-543214229" to="8828535#0"/>
    <trip id="veh16" type="veh_passenger" depart="56.87" departLane="best" from="1341533259" to="173009935#3"/>
    <trip id="veh17" type="veh_passenger" depart="60.43" departLane="best" departSpeed="max" from="543215378" to="173012494#1"/>
    <trip id="veh18" type="veh_passenger" depart="63.98" departLane="best" departSpeed="max" from="228470696#0" to="173011701#0"/>
    <trip id="veh22" type="veh_passenger" depart="78.20" departLane="best" from="173228854" to="1341533256"/>
    <trip id="veh23" type="veh_passenger" depart="81.76" departLane="best" from="1341533257" to="1063362007#0"/>
    <trip id="veh24" type="veh_passenger" depart="85.31" departLane="best" departSpeed="max" from="116044310#0" to="768403372"/>
    <trip id="veh25" type="veh_passenger" depart="88.86" departLane="best" from="173870626" to="173011701#1"/>
    <trip id="veh27" type="veh_passenger" depart="95.97" departLane="best" from="-961868961#0" to="1341533259"/>
    <trip id="veh28" type="veh_passenger" depart="99.53" departLane="best" from="8844064#1" to="173013293#1"/>
    <trip id="veh29" type="veh_passenger" depart="103.08" departLane="best" from="173011704" to="173228850#1"/>
    <trip id="veh30" type="veh_passenger" depart="106.64" departLane="best" departSpeed="max" from="543215378" to="228463846#2"/>
    <trip id="veh34" type="veh_passenger" depart="120.86" departLane="best" departSpeed="max" from="543215386" to="1340221060"/>
    <trip id="veh35" type="veh_passenger" depart="124.41" departLane="best" from="-173871267" to="1341535488"/>
    <trip id="veh36" type="veh_passenger" depart="127.96" departLane="best" from="70457713#0" to="1342359440"/>
    <trip id="veh37" type="veh_passenger" depart="131.52" departLane="best" departSpeed="max" from="116044310#0" to="1119412352"/>
    <trip id="veh43" type="veh_passenger" depart="152.85" departLane="best" from="-173009935#0" to="1341533259"/>
    <trip id="veh44" type="veh_passenger" depart="156.40" departLane="best" from="965407965#1" to="-1376463965"/>
    <trip id="veh45" type="veh_passenger" depart="159.96" departLane="best" from="8828535#0" to="543215387"/>
    <trip id="veh46" type="veh_passenger" depart="163.51" departLane="best" from="-1061188798#0" to="173870623"/>
    <trip id="veh48" type="veh_passenger" depart="170.62" departLane="best" departSpeed="max" from="116044310#0" to="173013293#1"/>
    <trip id="veh49" type="veh_passenger" depart="174.17" departLane="best" from="-175374225" to="1341787697"/>
    <trip id="veh54" type="veh_passenger" depart="191.95" departLane="best" from="1318032192" to="173013293#1"/>
    <trip id="veh55" type="veh_passenger" depart="195.50" departLane="best" departSpeed="max" from="173016196#0" to="-8828535#1"/>
    <trip id="veh57" type="veh_passenger" depart="202.61" departLane="best" from="-319510214#2" to="1376463965"/>
    <trip id="veh58" type="veh_passenger" depart="206.16" departLane="best" departSpeed="max" from="-1015979281" to="1340221060"/>
    <trip id="veh59" type="veh_passenger" depart="209.72" departLane="best" departSpeed="max" from="-1061188798#1" to="711663927#0"/>
    <trip id="veh60" type="veh_passenger" depart="213.27" departLane="best" departSpeed="max" from="543215386" to="-319510213#1"/>
    <trip id="veh61" type="veh_passenger" depart="216.83" departLane="best" from="1318032193" to="-173013298"/>
    <trip id="veh62" type="veh_passenger" depart="220.38" departLane="best" departSpeed="max" from="543215386" to="768403375"/>
    <trip id="veh64" type="veh_passenger" depart="227.49" departLane="best" from="-173011696#0" to="228463846#2"/>
    <trip id="veh65" type="veh_passenger" depart="231.05" departLane="best" from="262597962#1" to="-319510213#0"/>
    <trip id="veh67" type="veh_passenger" depart="238.16" departLane="best" departSpeed="max" from="116044310#0" to="543215376"/>
    <trip id="veh71" type="veh_passenger" depart="252.37" departLane="best" from="-965407965#1" to="173016197"/>
    <trip id="veh74" type="veh_passenger" depart="263.04" departLane="best" from="1340221062" to="173011696#1"/>
    <trip id="veh75" type="veh_passenger" depart="266.59" departLane="best" departSpeed="max" from="1079378647" to="1074185973#0"/>
    <trip id="veh76" type="veh_passenger" depart="270.15" departLane="best" departSpeed="max" from="-173011696#1" to="173012496#1"/>
    <trip id="veh77" type="veh_passenger" depart="273.70" departLane="best" departSpeed="max" from="1079378647" to="698787679"/>
    <trip id="veh78" type="veh_passenger" depart="277.26" departLane="best" departSpeed="max" from="543215386" to="-173871267"/>
    <trip id="veh83" type="veh_passenger" depart="295.03" departLane="best" from="543215371#0" to="1061188798#1"/>
    <trip id="veh86" type="veh_passenger" depart="305.69" departLane="best" departSpeed="max" from="228470926" to="173228849"/>
    <trip id="veh87" type="veh_passenger" depart="309.25" departLane="best" departSpeed="max" from="8844064#0" to="-228470700#0"/>
    <trip id="veh89" type="veh_passenger" depart="316.36" departLane="best" departSpeed="max" from="543215386" to="1188717144"/>
    <trip id="veh90" type="veh_passenger" depart="319.91" departLane="best" from="1046762229#0" to="1341836049"/>
    <trip id="veh93" type="veh_passenger" depart="330.57" departLane="best" from="1343437883" to="543215387"/>
    <trip id="veh95" type="veh_passenger" depart="337.68" departLane="best" departSpeed="max" from="8824805" to="70583993"/>
    <trip id="veh96" type="veh_passenger" depart="341.24" departLane="best" departSpeed="max" from="543215378" to="-8844064#1"/>
    <trip id="veh98" type="veh_passenger" depart="348.35" departLane="best" from="-1341758465" to="-173013298"/>
    <trip id="veh99" type="veh_passenger" depart="351.90" departLane="best" from="1341533259" to="8844068#1"/>
    <trip id="veh100" type="veh_passenger" depart="355.46" departLane="best" departSpeed="max" from="116044310#0" to="228464633#1"/>
    <trip id="veh102" type="veh_passenger" depart="362.57" departLane="best" departSpeed="max" from="8824805" to="-965407965#1"/>
    <trip id="veh103" type="veh_passenger" depart="366.12" departLane="best" from="173011704" to="173870626"/>
    <trip id="veh104" type="veh_passenger" depart="369.67" departLane="best" from="-8828535#0" to="1340023179#1"/>
    <trip id="veh105" type="veh_passenger" depart="373.23" departLane="best" departSpeed="max" from="8824805" to="173011692#1"/>
    <trip id="veh106" type="veh_passenger" depart="376.78" departLane="best" from="173012497" to="175374226"/>
    <trip id="veh107" type="veh_passenger" depart="380.34" departLane="best" departSpeed="max" from="-141900862" to="173011692#1"/>
    <trip id="veh109" type="veh_passenger" depart="387.45" departLane="best" from="-8828535#1" to="8824804#0"/>
    <trip id="veh110" type="veh_passenger" depart="391.00" departLane="best" departSpeed="max" from="173013298" to="173228850#0"/>
    <trip id="veh112" type="veh_passenger" depart="398.11" departLane="best" from="543215390" to="1119412352"/>
    <trip id="veh113" type="veh_passenger" depart="401.67" departLane="best" departSpeed="max" from="173013298" to="173012494#1"/>
    <trip id="veh114" type="veh_passenger" depart="405.22" departLane="best" from="1341836049" to="173011692#1"/>
    <trip id="veh118" type="veh_passenger" depart="419.44" departLane="best" departSpeed="max" from="220078077#0" to="1340023179#1"/>
    <trip id="veh119" type="veh_passenger" depart="422.99" departLane="best" from="1338232317" to="-1368340586"/>
    <trip id="veh120" type="veh_passenger" depart="426.55" departLane="best" departSpeed="max" from="-173011696#1" to="1342359440"/>
    <trip id="veh122" type="veh_passenger" depart="433.66" departLane="best" departSpeed="max" from="116044310#0" to="713034546"/>
    <trip id="veh123" type="veh_passenger" depart="437.21" departLane="best" from="1341533257" to="-8844064#0"/>
    <trip id="veh124" type="veh_passenger" depart="440.77" departLane="best" departSpeed="max" from="543215378" to="173228852"/>
    <trip id="veh125" type="veh_passenger" depart="444.32" departLane="best" from="173016196#1" to="961868961#1"/>
    <trip id="veh126" type="veh_passenger" depart="447.88" departLane="best" from="173870626" to="-1341758465"/>
    <trip id="veh127" type="veh_passenger" depart="451.43" departLane="best" from="543215376" to="1340023179#1"/>
    <trip id="veh130" type="veh_passenger" depart="462.09" departLane="best" departSpeed="max" from="-174269693" to="173009953#1"/>
    <trip id="veh131" type="veh_passenger" depart="465.65" departLane="best" departSpeed="max" from="116044310#0" to="173011701#0"/>
    <trip id="veh132" type="veh_passenger" depart="469.20" departLane="best" departSpeed="max" from="228470700#0" to="1061188798#1"/>
    <trip id="veh134" type="veh_passenger" depart="476.31" departLane="best" departSpeed="max" from="543215378" to="-228470696#0"/>
    <trip id="veh136" type="veh_passenger" depart="483.42" departLane="best" departSpeed="max" from="-1015979281" to="228463846#2"/>
    <trip id="veh138" type="veh_passenger" depart="490.53" departLane="best" departSpeed="max" from="228470926" to="173009935#3"/>
    <trip id="veh139" type="veh_passenger" depart="494.08" departLane="best" from="1341836050" to="1341758465"/>
    <trip id="veh140" type="veh_passenger" depart="497.64" departLane="best" departSpeed="max" from="-173011696#1" to="543215387"/>
    <trip id="veh142" type="veh_passenger" depart="504.75" departLane="best" from="-768403372" to="-262597962#2"/>
    <trip id="veh146" type="veh_passenger" depart="518.97" departLane="best" from="-319510214#2" to="543215387"/>
    <trip id="veh148" type="veh_passenger" depart="526.08" departLane="best" from="-8828535#0" to="-711663927#0"/>
    <trip id="veh149" type="veh_passenger" depart="529.63" departLane="best" departSpeed="max" from="543215386" to="8828535#2"/>
    <trip id="veh151" type="veh_passenger" depart="536.74" departLane="best" from="1340221061" to="-711663927#1"/>
    <trip id="veh154" type="veh_passenger" depart="547.40" departLane="best" from="1074185975#0" to="229465500"/>
    <trip id="veh157" type="veh_passenger" depart="558.07" departLane="best" from="1340023181#1" to="543215387"/>
    <trip id="veh159" type="veh_passenger" depart="565.18" departLane="best" from="173228856" to="1341758465"/>
    <trip id="veh164" type="veh_passenger" depart="582.95" departLane="best" departSpeed="max" from="-174269693" to="1341787697"/>
    <trip id="veh165" type="veh_passenger" depart="586.50" departLane="best" departSpeed="max" from="228470926" to="1340221060"/>
    <trip id="veh166" type="veh_passenger" depart="590.06" departLane="best" departSpeed="max" from="173016196#0" to="1363518335"/>
    <trip id="veh167" type="veh_passenger" depart="593.61" departLane="best" from="1341533260" to="173011692#1"/>
    <trip id="veh169" type="veh_passenger" depart="600.72" departLane="best" departSpeed="max" from="-1015979281" to="70583993"/>
    <trip id="veh170" type="veh_passenger" depart="604.28" departLane="best" from="-961868961#0" to="173870626"/>
    <trip id="veh171" type="veh_passenger" depart="607.83" departLane="best" departSpeed="max" from="228470926" to="173228847"/>
    <trip id="veh172" type="veh_passenger" depart="611.39" departLane="best" from="1341533256" to="-173871267"/>
    <trip id="veh174" type="veh_passenger" depart="618.49" departLane="best" from="1337694696#0" to="319762587#0"/>
    <trip id="veh175" type="veh_passenger" depart="622.05" departLane="best" departSpeed="max" from="228470700#0" to="1340023181#1"/>
    <trip id="veh176" type="veh_passenger" depart="625.60" departLane="best" from="1337694696#0" to="1341758466"/>
    <trip id="veh178" type="veh_passenger" depart="632.71" departLane="best" from="262597962#1" to="1341758466"/>
    <trip id="veh180" type="veh_passenger" depart="639.82" departLane="best" from="1318032193" to="173009935#1"/>
    <trip id="veh181" type="veh_passenger" depart="643.38" departLane="best" departSpeed="max" from="-1015979281" to="1359792196#2"/>
    <trip id="veh182" type="veh_passenger" depart="646.93" departLane="best" from="1342359440" to="173011692#1"/>
    <trip id="veh185" type="veh_passenger" depart="657.59" departLane="best" departSpeed="max" from="1343441228" to="698787678"/>
    <trip id="veh186" type="veh_passenger" depart="661.15" departLane="best" from="543215369#0" to="173011699"/>
    <trip id="veh187" type="veh_passenger" depart="664.70" departLane="best" from="173011701#1" to="-1368338254#0"/>
    <trip id="veh188" type="veh_passenger" depart="668.26" departLane="best" from="173228850#1" to="1340221061"/>
    <trip id="veh189" type="veh_passenger" depart="671.81" departLane="best" from="543215376" to="-1368340586"/>
    <trip id="veh192" type="veh_passenger" depart="682.48" departLane="best" departSpeed="max" from="1079378647" to="1343445560"/>
    <trip id="veh195" type="veh_passenger" depart="693.14" departLane="best" from="1063362007#0" to="173228852"/>
    <trip id="veh196" type="veh_passenger" depart="696.69" departLane="best" from="1363518335" to="1119412352"/>
    <trip id="veh197" type="veh_passenger" depart="700.25" departLane="best" from="173871267" to="-1063362007#1"/>
    <trip id="veh199" type="veh_passenger" depart="707.36" departLane="best" departSpeed="max" from="-174269693" to="1341758466"/>
    <trip id="veh200" type="veh_passenger" depart="710.91" departLane="best" from="-965407965#0" to="8824804#0"/>
    <trip id="veh205" type="veh_passenger" depart="728.69" departLane="best" departSpeed="max" from="173013298" to="768403375"/>
    <trip id="veh206" type="veh_passenger" depart="732.24" departLane="best" departSpeed="max" from="228470700#0" to="1363518334"/>
    <trip id="veh210" type="veh_passenger" depart="746.46" departLane="best" from="262597962#1" to="-1368338255"/>
    <trip id="veh212" type="veh_passenger" depart="753.57" departLane="best" departSpeed="max" from="-173011696#1" to="1337694696#0"/>
    <trip id="veh213" type="veh_passenger" depart="757.12" departLane="best" departSpeed="max" from="116044310#0" to="1340221060"/>
    <trip id="veh214" type="veh_passenger" depart="760.68" departLane="best" from="173012497" to="173009935#3"/>
    <trip id="veh216" type="veh_passenger" depart="767.79" departLane="best" departSpeed="max" from="228470696#0" to="173228855"/>
    <trip id="veh218" type="veh_passenger" depart="774.90" departLane="best" from="1341836049" to="1061188798#1"/>
    <trip id="veh220" type="veh_passenger" depart="782.00" departLane="best" from="173012497" to="173228852"/>
    <trip id="veh221" type="veh_passenger" depart="785.56" departLane="best" departSpeed="max" from="543215386" to="228463846#2"/>
    <trip id="veh222" type="veh_passenger" depart="789.11" departLane="best" from="1341533259" to="-1063362007#1"/>
    <trip id="veh223" type="veh_passenger" depart="792.67" departLane="best" from="1341527110" to="228463831#0"/>
    <trip id="veh224" type="veh_passenger" depart="796.22" departLane="best" departSpeed="max" from="543215386" to="768403375"/>
    <trip id="veh225" type="veh_passenger" depart="799.78" departLane="best" from="1341836049" to="-174379063#0"/>
    <trip id="veh227" type="veh_passenger" depart="806.89" departLane="best" from="1340221062" to="173228850#0-AddedOffRampEdge"/>
    <trip id="veh230" type="veh_passenger" depart="817.55" departLane="best" from="1256780406" to="-141900800"/>
    <trip id="veh231" type="veh_passenger" depart="821.10" departLane="best" from="1341535488" to="173009953#1"/>
    <trip id="veh232" type="veh_passenger" depart="824.66" departLane="best" departSpeed="max" from="-1061188798#1" to="173014720#0"/>
    <trip id="veh233" type="veh_passenger" depart="828.21" departLane="best" from="-319510214#0" to="1342359440"/>
    <trip id="veh234" type="veh_passenger" depart="831.77" departLane="best" from="220078077#1" to="1341533259"/>
    <trip id="veh239" type="veh_passenger" depart="849.54" departLane="best" departSpeed="max" from="-1061188798#1" to="-141900800"/>
    <trip id="veh241" type="veh_passenger" depart="856.65" departLane="best" from="173870623" to="228464633#1"/>
    <trip id="veh242" type="veh_passenger" depart="860.20" departLane="best" from="173870626" to="228463831#0"/>
    <trip id="veh243" type="veh_passenger" depart="863.76" departLane="best" from="8824804#1-AddedOnRampEdge" to="1061188798#1"/>
    <trip id="veh244" type="veh_passenger" depart="867.31" departLane="best" departSpeed="max" from="-1061188798#1" to="-8828535#0"/>
    <trip id="veh245" type="veh_passenger" depart="870.87" departLane="best" departSpeed="max" from="-228470700#4" to="173228844#0"/>
    <trip id="veh247" type="veh_passenger" depart="877.98" departLane="best" from="173228850#1" to="228463846#2"/>
    <trip id="veh248" type="veh_passenger" depart="881.53" departLane="best" departSpeed="max" from="-961868961#1" to="-173011701#1"/>
    <trip id="veh249" type="veh_passenger" depart="885.09" departLane="best" from="543215377" to="8824804#1-AddedOnRampEdge"/>
    <trip id="veh250" type="veh_passenger" depart="888.64" departLane="best" departSpeed="max" from="-174269693" to="-141900800"/>
    <trip id="veh251" type="veh_passenger" depart="892.20" departLane="best" from="1337694696#0" to="173228850#0"/>
    <trip id="veh252" type="veh_passenger" depart="895.75" departLane="best" departSpeed="max" from="8824805" to="1341535488"/>
    <trip id="veh253" type="veh_passenger" depart="899.31" departLane="best" departSpeed="max" from="228470700#0" to="-220078077#0"/>
    <trip id="veh255" type="veh_passenger" depart="906.41" departLane="best" departSpeed="max" from="-174269693" to="228463846#2"/>
    <trip id="veh256" type="veh_passenger" depart="909.97" departLane="best" from="543215383#1" to="173011700#1"/>
    <trip id="veh257" type="veh_passenger" depart="913.52" departLane="best" departSpeed="max" from="-228470700#4" to="8844068#0"/>
    <trip id="veh258" type="veh_passenger" depart="917.08" departLane="best" from="319762586" to="1341527109"/>
    <trip id="veh259" type="veh_passenger" depart="920.63" departLane="best" from="1342359440" to="1341533257"/>
    <trip id="veh260" type="veh_passenger" depart="924.19" departLane="best" from="1368338255" to="1340221062"/>
    <trip id="veh262" type="veh_passenger" depart="931.30" departLane="best" departSpeed="max" from="-174269693" to="8824804#0"/>
    <trip id="veh263" type="veh_passenger" depart="934.85" departLane="best" from="173228854" to="319509984"/>
    <trip id="veh264" type="veh_passenger" depart="938.41" departLane="best" departSpeed="max" from="228470696#0" to="1341787697"/>
    <trip id="veh265" type="veh_passenger" depart="941.96" departLane="best" departSpeed="max" from="228470926" to="8824804#1-AddedOnRampEdge"/>
    <trip id="veh266" type="veh_passenger" depart="945.51" departLane="best" departSpeed="max" from="116044310#0" to="228470700#4"/>
    <trip id="veh268" type="veh_passenger" depart="952.62" departLane="best" from="1343391534" to="173873658#1"/>
    <trip id="veh269" type="veh_passenger" depart="956.18" departLane="best" departSpeed="max" from="116044310#0" to="319762587#4"/>
    <trip id="veh270" type="veh_passenger" depart="959.73" departLane="best" departSpeed="max" from="543215378" to="-228470696#0"/>
    <trip id="veh271" type="veh_passenger" depart="963.29" departLane="best" from="543215371#0" to="1119412352"/>
    <trip id="veh273" type="veh_passenger" depart="970.40" departLane="best" from="1341533259" to="-141900800"/>
    <trip id="veh274" type="veh_passenger" depart="973.95" departLane="best" from="543215383#1" to="1340023179#1"/>
    <trip id="veh276" type="veh_passenger" depart="981.06" departLane="best" from="1340221062" to="543215383#1"/>
    <trip id="veh277" type="veh_passenger" depart="984.61" departLane="best" from="-1061188798#0" to="768403375"/>
    <trip id="veh278" type="veh_passenger" depart="988.17" departLane="best" from="-173011701#1" to="173870626"/>
    <trip id="veh279" type="veh_passenger" depart="991.72" departLane="best" from="220078077#1" to="173016196#1"/>
    <trip id="veh280" type="veh_passenger" depart="995.28" departLane="best" from="1363518334" to="228464637"/>
    <trip id="veh282" type="veh_passenger" depart="1002.39" departLane="best" from="220078077#1" to="1340221060"/>
    <trip id="veh283" type="veh_passenger" depart="1005.94" departLane="best" from="173012497" to="1343437885"/>
    <trip id="veh284" type="veh_passenger" depart="1009.50" departLane="best" from="-173009935#0" to="1341758466"/>
    <trip id="veh287" type="veh_passenger" depart="1020.16" departLane="best" from="-1061188798#0" to="-262597962#0"/>
    <trip id="veh288" type="veh_passenger" depart="1023.71" departLane="best" from="-543214229" to="228463846#2"/>
    <trip id="veh290" type="veh_passenger" depart="1030.82" departLane="best" from="1359792197" to="173870626"/>
    <trip id="veh291" type="veh_passenger" depart="1034.38" departLane="best" from="8839857" to="1376435620"/>
    <trip id="veh292" type="veh_passenger" depart="1037.93" departLane="best" from="1256780406" to="-228470700#0"/>
    <trip id="veh294" type="veh_passenger" depart="1045.04" departLane="best" from="-965407966#0" to="-1341758465"/>
    <trip id="veh296" type="veh_passenger" depart="1052.15" departLane="best" from="8828535#1" to="173009953#1"/>
    <trip id="veh297" type="veh_passenger" depart="1055.71" departLane="best" from="228463837" to="-262597962#2"/>
    <trip id="veh301" type="veh_passenger" depart="1069.92" departLane="best" from="543215377" to="1341758465"/>
    <trip id="veh304" type="veh_passenger" depart="1080.59" departLane="best" departSpeed="max" from="173012496#0" to="70457713#0"/>
    <trip id="veh305" type="veh_passenger" depart="1084.14" departLane="best" from="8844068#1" to="-262597962#0"/>
    <trip id="veh306" type="veh_passenger" depart="1087.70" departLane="best" from="262597962#1" to="173011701#1"/>
    <trip id="veh309" type="veh_passenger" depart="1098.36" departLane="best" from="1343437883" to="543215387"/>
    <trip id="veh310" type="veh_passenger" depart="1101.92" departLane="best" from="8844064#1" to="1340023181#1"/>
    <trip id="veh311" type="veh_passenger" depart="1105.47" departLane="best" from="1256780406" to="173011703"/>
    <trip id="veh312" type="veh_passenger" depart="1109.02" departLane="best" departSpeed="max" from="228470926" to="768403375"/>
    <trip id="veh315" type="veh_passenger" depart="1119.69" departLane="best" departSpeed="max" from="-961868961#1" to="-220078077#0"/>
    <trip id="veh316" type="veh_passenger" depart="1123.24" departLane="best" departSpeed="max" from="-1015979281" to="1341836050"/>
    <trip id="veh317" type="veh_passenger" depart="1126.80" departLane="best" departSpeed="max" from="173013298" to="1337694696#0"/>
    <trip id="veh320" type="veh_passenger" depart="1137.46" departLane="best" departSpeed="max" from="220078077#0" to="70583993"/>
    <trip id="veh321" type="veh_passenger" depart="1141.02" departLane="best" from="319762587#0" to="173012494#1"/>
    <trip id="veh323" type="veh_passenger" depart="1148.12" departLane="best" from="1341836050" to="141900842"/>
    <trip id="veh325" type="veh_passenger" depart="1155.23" departLane="best" departSpeed="max" from="543215378" to="-174379063#0"/>
    <trip id="veh326" type="veh_passenger" depart="1158.79" departLane="best" departSpeed="max" from="-961868961#1" to="1340221060"/>
    <trip id="veh328" type="veh_passenger" depart="1165.90" departLane="best" from="1318032191#0" to="-262597962#1"/>
    <trip id="veh329" type="veh_passenger" depart="1169.45" departLane="best" departSpeed="max" from="220078077#0" to="173228852"/>
    <trip id="veh330" type="veh_passenger" depart="1173.01" departLane="best" from="8824804#1" to="1359792197"/>
    <trip id="veh331" type="veh_passenger" depart="1176.56" departLane="best" from="1363518335" to="-220078077#0"/>
    <trip id="veh333" type="veh_passenger" depart="1183.67" departLane="best" from="1046762229#0" to="1188717144"/>
    <trip id="veh334" type="veh_passenger" depart="1187.23" departLane="best" from="-173228847" to="8824804#1"/>
    <trip id="veh335" type="veh_passenger" depart="1190.78" departLane="best" from="8824804#1-AddedOnRampEdge" to="965407966#1"/>
    <trip id="veh337" type="veh_passenger" depart="1197.89" departLane="best" from="-1341758465" to="228463831#0"/>
    <trip id="veh339" type="veh_passenger" depart="1205.00" departLane="best" from="173013293#1" to="173011700#1"/>
    <trip id="veh340" type="veh_passenger" depart="1208.55" departLane="best" from="1363518334" to="-228470696#0"/>
    <trip id="veh342" type="veh_passenger" depart="1215.66" departLane="best" from="1340023181#1" to="173228852"/>
    <trip id="veh343" type="veh_passenger" depart="1219.22" departLane="best" from="1318032191#0" to="768403375"/>
    <trip id="veh344" type="veh_passenger" depart="1222.77" departLane="best" from="543215373" to="173009935#2"/>
    <trip id="veh346" type="veh_passenger" depart="1229.88" departLane="best" from="1340023179#1" to="-8825163"/>
    <trip id="veh348" type="veh_passenger" depart="1236.99" departLane="best" departSpeed="max" from="8844064#0" to="173016197"/>
    <trip id="veh349" type="veh_passenger" depart="1240.54" departLane="best" from="173012497" to="1341758466"/>
    <trip id="veh350" type="veh_passenger" depart="1244.10" departLane="best" from="1046762229#0" to="1341530787"/>
    <trip id="veh354" type="veh_passenger" depart="1258.32" departLane="best" departSpeed="max" from="-228470700#4" to="8828535#0"/>
    <trip id="veh355" type="veh_passenger" depart="1261.87" departLane="best" departSpeed="max" from="173016196#0" to="1119412352"/>
    <trip id="veh356" type="veh_passenger" depart="1265.43" departLane="best" from="-8828535#2" to="173009935#3"/>
    <trip id="veh357" type="veh_passenger" depart="1268.98" departLane="best" from="173011704" to="-228470700#0"/>
    <trip id="veh360" type="veh_passenger" depart="1279.64" departLane="best" departSpeed="max" from="543215378" to="1359792196#2"/>
    <trip id="veh361" type="veh_passenger" depart="1283.20" departLane="best" departSpeed="max" from="228470700#0" to="1363518335"/>
    <trip id="veh362" type="veh_passenger" depart="1286.75" departLane="best" departSpeed="max" from="116044310#0" to="319510214#0"/>