<routes>
    <vType id="truck" accel="1.0" decel="3.0" sigma="0.5" length="10" minGap="3" maxSpeed="22.352" color="1,1,0"/>
    <vType id="car" accel="1.5" decel="4.5" sigma="0.5" length="5" minGap="2.5" maxSpeed="22.352" color="0.5,0.5,0.5"/>
    <vType id="truck_platoon_leader" accel="1.0" decel="3.0" sigma="0.0" length="10" minGap="2" maxSpeed="22.352" color="0.8,0.4,0"/>
    <vType id="truck_platoon_follower" accel="1.0" decel="3.0" sigma="0.0" length="10" minGap="0.5" maxSpeed="22.352" color="0.8,0.8,0"/>

    <route id="main_route" edges="228470926 1318032192 1318032193 1318032191#0 228463837 173228852"/>
    <flow id="light_flow" type="car" route="main_route" begin="0" end="3600" period="12" departLane="random" departSpeed="max"/>

    
</routes>