<?xml version="1.0" encoding="UTF-8"?>

<!-- generated on 2025-04-18 08:52:42.397554 by osmWebWizard.py v1_21_0+0000-d7b3b481c43
<configuration>
    <net-file value="C:\Users\jones\2025-04-18-08-52-31\osm.net.xml.gz"/>
    <output-trip-file value="C:\Users\jones\2025-04-18-08-52-31\osm.passenger.trips.xml"/>
    <route-file value="C:\Users\jones\2025-04-18-08-52-31\osm.passenger.rou.xml"/>
    <prefix value="veh"/>
    <trip-attributes value="departLane=&quot;best&quot;"/>
    <fringe-start-attributes value="departSpeed=&quot;max&quot;"/>
    <vehicle-class value="passenger"/>
    <lanes value="True"/>
    <fringe-factor value="12"/>
    <allow-fringe.min-length value="1000.0"/>
    <via-edge-types value="highway.motorway,highway.motorway_link,highway.trunk_link,highway.primary_link,highway.secondary_link,highway.tertiary_link"/>
    <min-distance value="300.0"/>
    <min-distance.fringe value="10.0"/>
    <remove-loops value="True"/>
    <validate value="True"/>
    <insertion-density value="24.0"/>
</configuration>
-->

<!-- generated on 2025-04-18 08:52:42 by Eclipse SUMO duarouter Version 1.21.0
<duarouterConfiguration xmlns:xsi="http://www.w3.org/2001/XMLSchema-instance" xsi:noNamespaceSchemaLocation="http://sumo.dlr.de/xsd/duarouterConfiguration.xsd">

    <input>
        <net-file value="C:\Users\jones\2025-04-18-08-52-31\osm.net.xml.gz"/>
        <route-files value="C:\Users\jones\2025-04-18-08-52-31\osm.passenger.trips.xml"/>
    </input>

    <output>
        <output-file value="C:\Users\jones\2025-04-18-08-52-31\osm.passenger.trips.xml.tmp"/>
        <alternatives-output value="NUL"/>
        <write-trips value="true"/>
    </output>

    <processing>
        <remove-loops value="true"/>
    </processing>

    <time>
        <begin value="0.0"/>
        <end value="3600.0"/>
    </time>

    <report>
        <no-warnings value="true"/>
        <ignore-errors value="true"/>
        <no-step-log value="true"/>
    </report>

</duarouterConfiguration>
-->

<routes xmlns:xsi="http://www.w3.org/2001/XMLSchema-instance" xsi:noNamespaceSchemaLocation="http://sumo.dlr.de/xsd/routes_file.xsd">
    <vType id="veh_passenger" vClass="passenger"/>
    <trip id="veh0" type="veh_passenger" depart="0.00" departLane="best" from="-228869041#0" to="-132203826"/>
    <trip id="veh1" type="veh_passenger" depart="1.27" departLane="best" departSpeed="max" from="1031557798" to="1011335303#2"/>
    <trip id="veh2" type="veh_passenger" depart="2.55" departLane="best" departSpeed="max" from="51064231#0" to="233079867#1"/>
    <trip id="veh3" type="veh_passenger" depart="3.82" departLane="best" departSpeed="max" from="725050052#0" to="-350378497#3"/>
    <trip id="veh5" type="veh_passenger" depart="6.37" departLane="best" departSpeed="max" from="-1082787306" to="590855729#1"/>
    <trip id="veh6" type="veh_passenger" depart="7.65" departLane="best" departSpeed="max" from="233079090#0" to="1337972051"/>
    <trip id="veh7" type="veh_passenger" depart="8.92" departLane="best" from="1004361302#2" to="1339822206"/>
    <trip id="veh8" type="veh_passenger" depart="10.19" departLane="best" from="590894226" to="-1027521009#2"/>
    <trip id="veh9" type="veh_passenger" depart="11.47" departLane="best" from="1206114757#0" to="233193496#1"/>
    <trip id="veh10" type="veh_passenger" depart="12.74" departLane="best" from="1077408413#1" to="-8831834"/>
    <trip id="veh11" type="veh_passenger" depart="14.02" departLane="best" departSpeed="max" from="8835264#0" to="1082787306"/>
    <trip id="veh12" type="veh_passenger" depart="15.29" departLane="best" from="-240037777#3" to="-590855711"/>
    <trip id="veh13" type="veh_passenger" depart="16.57" departLane="best" from="637393248#0" to="1340006285"/>
    <trip id="veh14" type="veh_passenger" depart="17.84" departLane="best" from="590855735#1" to="350378497#4"/>
    <trip id="veh15" type="veh_passenger" depart="19.12" departLane="best" from="1339425118#0" to="986596587"/>
    <trip id="veh16" type="veh_passenger" depart="20.39" departLane="best" departSpeed="max" from="111604366" to="1337972051"/>
    <trip id="veh17" type="veh_passenger" depart="21.66" departLane="best" from="637393239" to="1343677844"/>
    <trip id="veh19" type="veh_passenger" depart="24.21" departLane="best" from="350378497#2" to="228869044#1"/>
    <trip id="veh21" type="veh_passenger" depart="26.76" departLane="best" departSpeed="max" from="-233193496#1" to="1011335303#2-AddedOnRampEdge"/>
    <trip id="veh22" type="veh_passenger" depart="28.04" departLane="best" from="-350378497#1" to="-1067441379#2"/>
    <trip id="veh23" type="veh_passenger" depart="29.31" departLane="best" from="228869036#2" to="1154449265"/>
    <trip id="veh24" type="veh_passenger" depart="30.58" departLane="best" from="108657880#1" to="1011335303#2"/>
    <trip id="veh25" type="veh_passenger" depart="31.86" departLane="best" departSpeed="max" from="1031557798" to="886059458"/>
    <trip id="veh27" type="veh_passenger" depart="34.41" departLane="best" from="779091035#1" to="350378497#3"/>
    <trip id="veh28" type="veh_passenger" depart="35.68" departLane="best" from="-684673731#6" to="1154449270"/>
    <trip id="veh29" type="veh_passenger" depart="36.96" departLane="best" from="946381229#1-AddedOnRampEdge" to="1343677844"/>
    <trip id="veh30" type="veh_passenger" depart="38.23" departLane="best" from="1339822204" to="144267658#0"/>
    <trip id="veh31" type="veh_passenger" depart="39.51" departLane="best" from="637393245#0" to="537617306"/>
    <trip id="veh32" type="veh_passenger" depart="40.78" departLane="best" from="1011335304#0" to="-132203826"/>
    <trip id="veh33" type="veh_passenger" depart="42.05" departLane="best" from="1067441379#2" to="1065858301"/>
    <trip id="veh34" type="veh_passenger" depart="43.33" departLane="best" departSpeed="max" from="-8844871" to="886059458"/>
    <trip id="veh35" type="veh_passenger" depart="44.60" departLane="best" departSpeed="max" from="684812362" to="1080445762#1"/>
    <trip id="veh36" type="veh_passenger" depart="45.88" departLane="best" departSpeed="max" from="233079090#0" to="1154449270"/>
    <trip id="veh38" type="veh_passenger" depart="48.43" departLane="best" departSpeed="max" from="1031557798" to="1027521009#0"/>
    <trip id="veh39" type="veh_passenger" depart="49.70" departLane="best" from="1339822206" to="1065858300"/>
    <trip id="veh40" type="veh_passenger" depart="50.97" departLane="best" from="1340716366#2" to="-735501508"/>
    <trip id="veh41" type="veh_passenger" depart="52.25" departLane="best" departSpeed="max" from="111604366" to="1011335303#2"/>
    <trip id="veh42" type="veh_passenger" depart="53.52" departLane="best" from="973350092#1" to="1335116863"/>
    <trip id="veh43" type="veh_passenger" depart="54.80" departLane="best" from="-240037777#2" to="-233079090#0"/>
    <trip id="veh44" type="veh_passenger" depart="56.07" departLane="best" from="482917910#4" to="1343677844"/>
    <trip id="veh45" type="veh_passenger" depart="57.35" departLane="best" departSpeed="max" from="590855712#0" to="1154449270"/>
    <trip id="veh46" type="veh_passenger" depart="58.62" departLane="best" from="233079090#2" to="1154449270"/>
    <trip id="veh47" type="veh_passenger" depart="59.90" departLane="best" from="973350092#0" to="1337972051"/>
    <trip id="veh48" type="veh_passenger" depart="61.17" departLane="best" from="-228869038#0" to="637393250#0"/>
    <trip id="veh49" type="veh_passenger" depart="62.44" departLane="best" from="-107574085#0" to="275726366#1"/>
    <trip id="veh50" type="veh_passenger" depart="63.72" departLane="best" from="236424300#1" to="1337972051"/>
    <trip id="veh51" type="veh_passenger" depart="64.99" departLane="best" departSpeed="max" from="1031557798" to="1343677844"/>
    <trip id="veh52" type="veh_passenger" depart="66.27" departLane="best" from="-483580377#1" to="1197491636#1"/>
    <trip id="veh53" type="veh_passenger" depart="67.54" departLane="best" departSpeed="max" from="1230271567" to="942235438"/>
    <trip id="veh54" type="veh_passenger" depart="68.82" departLane="best" departSpeed="max" from="684812362" to="1335116860"/>
    <trip id="veh55" type="veh_passenger" depart="70.09" departLane="best" departSpeed="max" from="132203826" to="-8835264#0"/>
    <trip id="veh56" type="veh_passenger" depart="71.36" departLane="best" departSpeed="max" from="725050052#0" to="637393250#0"/>
    <trip id="veh57" type="veh_passenger" depart="72.64" departLane="best" from="1063254508#0" to="1343677844"/>
    <trip id="veh58" type="veh_passenger" depart="73.91" departLane="best" departSpeed="max" from="144267619" to="-8831834"/>
    <trip id="veh59" type="veh_passenger" depart="75.19" departLane="best" departSpeed="max" from="51711395#0" to="1337972051"/>
    <trip id="veh60" type="veh_passenger" depart="76.46" departLane="best" departSpeed="max" from="51711395#0" to="1337972051"/>
    <trip id="veh61" type="veh_passenger" depart="77.74" departLane="best" from="-1027521008#1" to="1082787306"/>
    <trip id="veh62" type="veh_passenger" depart="79.01" departLane="best" departSpeed="max" from="-1082787306" to="8835264#1"/>
    <trip id="veh63" type="veh_passenger" depart="80.29" departLane="best" departSpeed="max" from="684812362" to="637393242"/>
    <trip id="veh64" type="veh_passenger" depart="81.56" departLane="best" from="1065858301" to="-233079090#0"/>
    <trip id="veh65" type="veh_passenger" depart="82.83" departLane="best" departSpeed="max" from="684812362" to="918220794"/>
    <trip id="veh66" type="veh_passenger" depart="84.11" departLane="best" from="-236424300#1" to="131599262#0"/>
    <trip id="veh67" type="veh_passenger" depart="85.38" departLane="best" departSpeed="max" from="-233193496#1" to="275726366#1"/>
    <trip id="veh68" type="veh_passenger" depart="86.66" departLane="best" departSpeed="max" from="51711395#0" to="-684673731#4"/>
    <trip id="veh69" type="veh_passenger" depart="87.93" departLane="best" from="1237946319" to="1337972051"/>
    <trip id="veh70" type="veh_passenger" depart="89.21" departLane="best" departSpeed="max" from="1031557798" to="637393250#0"/>
    <trip id="veh72" type="veh_passenger" depart="91.75" departLane="best" from="1339425118#1" to="350378497#4"/>
    <trip id="veh73" type="veh_passenger" depart="93.03" departLane="best" departSpeed="max" from="-8844871" to="1080445762#0"/>
    <trip id="veh74" type="veh_passenger" depart="94.30" departLane="best" from="918220794" to="1343677845"/>
    <trip id="veh75" type="veh_passenger" depart="95.58" departLane="best" from="1206114757#0" to="1337972051"/>
    <trip id="veh76" type="veh_passenger" depart="96.85" departLane="best" departSpeed="max" from="-483580377#2" to="1011335303#2"/>
    <trip id="veh77" type="veh_passenger" depart="98.13" departLane="best" from="107574094#1" to="1339822206"/>
    <trip id="veh78" type="veh_passenger" depart="99.40" departLane="best" from="1250671859#3" to="1011335303#2"/>
    <trip id="veh79" type="veh_passenger" depart="100.68" departLane="best" departSpeed="max" from="-233193496#1" to="1343677844"/>
    <trip id="veh80" type="veh_passenger" depart="101.95" departLane="best" from="1011335304#0" to="920587368#1"/>
    <trip id="veh81" type="veh_passenger" depart="103.22" departLane="best" from="637393248#0" to="-240037777#1"/>
    <trip id="veh82" type="veh_passenger" depart="104.50" departLane="best" from="1027521008#3" to="228869042#0"/>
    <trip id="veh83" type="veh_passenger" depart="105.77" departLane="best" from="1004361301#0" to="-725036756"/>
    <trip id="veh85" type="veh_passenger" depart="108.32" departLane="best" from="1236942800" to="590855734#1"/>
    <trip id="veh86" type="veh_passenger" depart="109.60" departLane="best" from="590855735#1" to="-895681783"/>
    <trip id="veh87" type="veh_passenger" depart="110.87" departLane="best" from="-240037777#9" to="1189584300#1"/>
    <trip id="veh89" type="veh_passenger" depart="113.42" departLane="best" departSpeed="max" from="51064231#0" to="228869044#1"/>
    <trip id="veh91" type="veh_passenger" depart="115.97" departLane="best" departSpeed="max" from="111604366" to="1082787306"/>
    <trip id="veh93" type="veh_passenger" depart="118.52" departLane="best" departSpeed="max" from="-8835264#1" to="590855734#1"/>
    <trip id="veh95" type="veh_passenger" depart="121.07" departLane="best" departSpeed="max" from="1031557798" to="8835264#1"/>
    <trip id="veh96" type="veh_passenger" depart="122.34" departLane="best" from="1339822203#0" to="-233079090#0"/>
    <trip id="veh97" type="veh_passenger" depart="123.61" departLane="best" from="1335116861#0" to="637393245#0"/>
    <trip id="veh98" type="veh_passenger" depart="124.89" departLane="best" from="637393246#1" to="-8835264#0"/>
    <trip id="veh99" type="veh_passenger" depart="126.16" departLane="best" from="132106225#1" to="1011335303#2"/>
    <trip id="veh100" type="veh_passenger" depart="127.44" departLane="best" departSpeed="max" from="111604366" to="-233079090#0"/>
    <trip id="veh101" type="veh_passenger" depart="128.71" departLane="best" departSpeed="max" from="1031557798" to="590855734#1"/>
    <trip id="veh102" type="veh_passenger" depart="129.99" departLane="best" departSpeed="max" from="1230271567" to="1154449270"/>
    <trip id="veh103" type="veh_passenger" depart="131.26" departLane="best" departSpeed="max" from="8835264#0" to="986596587"/>
    <trip id="veh104" type="veh_passenger" depart="132.53" departLane="best" from="1339822204" to="254601686#1"/>
    <trip id="veh105" type="veh_passenger" depart="133.81" departLane="best" from="-637024785" to="1077408419"/>
    <trip id="veh106" type="veh_passenger" depart="135.08" departLane="best" departSpeed="max" from="8835264#0" to="1339822203#0"/>
    <trip id="veh107" type="veh_passenger" depart="136.36" departLane="best" from="1339426604#1" to="483580377#2"/>
    <trip id="veh108" type="veh_passenger" depart="137.63" departLane="best" from="-228869041#1" to="1339822204"/>
    <trip id="veh109" type="veh_passenger" depart="138.91" departLane="best" departSpeed="max" from="132203826" to="637393250#0"/>
    <trip id="veh110" type="veh_passenger" depart="140.18" departLane="best" from="-684673731#1" to="946381229#1"/>
    <trip id="veh111" type="veh_passenger" depart="141.46" departLane="best" from="-233194674#1" to="-895681783"/>
    <trip id="veh112" type="veh_passenger" depart="142.73" departLane="best" from="1343677845" to="-233079090#2"/>
    <trip id="veh113" type="veh_passenger" depart="144.00" departLane="best" from="1011335304#4" to="-637024782"/>
    <trip id="veh114" type="veh_passenger" depart="145.28" departLane="best" departSpeed="max" from="725050052#0" to="1027521008#4"/>
    <trip id="veh115" type="veh_passenger" depart="146.55" departLane="best" from="1343677845" to="1343677844"/>
    <trip id="veh117" type="veh_passenger" depart="149.10" departLane="best" from="1335116863" to="886059458"/>
    <trip id="veh118" type="veh_passenger" depart="150.38" departLane="best" departSpeed="max" from="-8844871" to="-240037777#7"/>
    <trip id="veh119" type="veh_passenger" depart="151.65" departLane="best" from="1027521008#3" to="1154449270"/>
    <trip id="veh120" type="veh_passenger" depart="152.92" departLane="best" from="1063254508#0" to="1078186145#0"/>
    <trip id="veh121" type="veh_passenger" depart="154.20" departLane="best" from="-1067441379#2" to="483580377#2"/>
    <trip id="veh123" type="veh_passenger" depart="156.75" departLane="best" from="1335116861#0" to="986596587"/>
    <trip id="veh124" type="veh_passenger" depart="158.02" departLane="best" departSpeed="max" from="-233193496#1" to="1011335303#2"/>
    <trip id="veh125" type="veh_passenger" depart="159.30" departLane="best" departSpeed="max" from="1031557798" to="886059458"/>
    <trip id="veh126" type="veh_passenger" depart="160.57" departLane="best" departSpeed="max" from="684812362" to="637393250#0"/>
    <trip id="veh127" type="veh_passenger" depart="161.85" departLane="best" from="108657880#1" to="-8831834"/>
    <trip id="veh128" type="veh_passenger" depart="163.12" departLane="best" from="637393240" to="233194674#1"/>
    <trip id="veh129" type="veh_passenger" depart="164.39" departLane="best" departSpeed="max" from="144267619" to="986596587"/>
    <trip id="veh130" type="veh_passenger" depart="165.67" departLane="best" departSpeed="max" from="233079090#0" to="1027521009#3"/>
    <trip id="veh131" type="veh_passenger" depart="166.94" departLane="best" from="6029438#1" to="1077408420#0"/>
    <trip id="veh132" type="veh_passenger" depart="168.22" departLane="best" from="233079090#1" to="886059458"/>
    <trip id="veh133" type="veh_passenger" depart="169.49" departLane="best" departSpeed="max" from="-6029295#2" to="-6029295#1"/>
    <trip id="veh134" type="veh_passenger" depart="170.77" departLane="best" from="-482917910#2" to="1337972051"/>
    <trip id="veh135" type="veh_passenger" depart="172.04" departLane="best" departSpeed="max" from="1031557798" to="1340006285"/>
    <trip id="veh136" type="veh_passenger" depart="173.31" departLane="best" from="233086822" to="1065858300"/>
    <trip id="veh137" type="veh_passenger" depart="174.59" departLane="best" from="132111918#1" to="8805554#1"/>
    <trip id="veh138" type="veh_passenger" depart="175.86" departLane="best" from="637393245#0" to="-482917910#4"/>
    <trip id="veh140" type="veh_passenger" depart="178.41" departLane="best" from="-1027521008#3" to="537617306"/>
    <trip id="veh141" type="veh_passenger" depart="179.69" departLane="best" from="228869036#3" to="233086801#3"/>
    <trip id="veh142" type="veh_passenger" depart="180.96" departLane="best" departSpeed="max" from="51064231#0" to="1337972051"/>
    <trip id="veh144" type="veh_passenger" depart="183.51" departLane="best" departSpeed="max" from="-233193496#1" to="684673731#1"/>
    <trip id="veh145" type="veh_passenger" depart="184.78" departLane="best" departSpeed="max" from="725050052#0" to="1337972051"/>
    <trip id="veh146" type="veh_passenger" depart="186.06" departLane="best" from="637393240" to="1339822204"/>
    <trip id="veh147" type="veh_passenger" depart="187.33" departLane="best" departSpeed="max" from="-6029295#2" to="-684673731#3"/>
    <trip id="veh148" type="veh_passenger" depart="188.61" departLane="best" from="1065858301" to="736423530#1"/>
    <trip id="veh149" type="veh_passenger" depart="189.88" departLane="best" departSpeed="max" from="590855712#0" to="637393250#0"/>
    <trip id="veh150" type="veh_passenger" depart="191.16" departLane="best" departSpeed="max" from="725050052#0" to="1011335303#2"/>
    <trip id="veh151" type="veh_passenger" depart="192.43" departLane="best" departSpeed="max" from="1031557798" to="-590855712#0"/>
    <trip id="veh152" type="veh_passenger" depart="193.70" departLane="best" departSpeed="max" from="51711395#0" to="684673731#2"/>
    <trip id="veh153" type="veh_passenger" depart="194.98" departLane="best" from="1153972460" to="1343677844"/>
    <trip id="veh154" type="veh_passenger" depart="196.25" departLane="best" from="-637024785" to="8836073#1"/>
    <trip id="veh155" type="veh_passenger" depart="197.53" departLane="best" from="228869043#1" to="986596587"/>
    <trip id="veh156" type="veh_passenger" depart="198.80" departLane="best" from="590894226" to="228869043#1"/>
    <trip id="veh157" type="veh_passenger" depart="200.08" departLane="best" departSpeed="max" from="-1082787306" to="-8817656#0"/>
    <trip id="veh158" type="veh_passenger" depart="201.35" departLane="best" from="-107574085#2" to="886059458"/>
    <trip id="veh159" type="veh_passenger" depart="202.62" departLane="best" from="973350092#1" to="637393250#0"/>
    <trip id="veh160" type="veh_passenger" depart="203.90" departLane="best" from="590894226" to="1065858300"/>
    <trip id="veh161" type="veh_passenger" depart="205.17" departLane="best" from="684673731#6" to="637393250#0"/>
    <trip id="veh163" type="veh_passenger" depart="207.72" departLane="best" departSpeed="max" from="1230271567" to="1078186146"/>
    <trip id="veh164" type="veh_passenger" depart="209.00" departLane="best" departSpeed="max" from="590855712#0" to="1011335303#2"/>
    <trip id="veh165" type="veh_passenger" depart="210.27" departLane="best" departSpeed="max" from="-1082787306" to="1004361301#0"/>
    <trip id="veh166" type="veh_passenger" depart="211.55" departLane="best" departSpeed="max" from="-107574085#0" to="637393250#0"/>
    <trip id="veh167" type="veh_passenger" depart="212.82" departLane="best" departSpeed="max" from="8835264#0" to="107574085#1"/>
    <trip id="veh168" type="veh_passenger" depart="214.09" departLane="best" from="228869041#1" to="1154449270"/>
    <trip id="veh169" type="veh_passenger" depart="215.37" departLane="best" from="942235438" to="1337972051"/>
    <trip id="veh170" type="veh_passenger" depart="216.64" departLane="best" departSpeed="max" from="8831834" to="6029295#1"/>
    <trip id="veh171" type="veh_passenger" depart="217.92" departLane="best" from="-228869038#0" to="-8835264#0"/>
    <trip id="veh172" type="veh_passenger" depart="219.19" departLane="best" departSpeed="max" from="8835264#0" to="1065858300"/>
    <trip id="veh173" type="veh_passenger" depart="220.47" departLane="best" from="482917910#3" to="1197491636#1"/>
    <trip id="veh174" type="veh_passenger" depart="221.74" departLane="best" departSpeed="max" from="51064231#0" to="1080445762#1"/>
    <trip id="veh175" type="veh_passenger" depart="223.01" departLane="best" departSpeed="max" from="144267619" to="1335116864"/>
    <trip id="veh176" type="veh_passenger" depart="224.29" departLane="best" departSpeed="max" from="111604366" to="1339426606#1"/>
    <trip id="veh177" type="veh_passenger" depart="225.56" departLane="best" departSpeed="max" from="1031557798" to="240037777#10"/>
    <trip id="veh178" type="veh_passenger" depart="226.84" departLane="best" from="-1027521008#2" to="8835264#1"/>
    <trip id="veh179" type="veh_passenger" depart="228.11" departLane="best" departSpeed="max" from="51064231#0" to="228869043#1"/>
    <trip id="veh180" type="veh_passenger" depart="229.39" departLane="best" from="233079090#1" to="1082787306"/>
    <trip id="veh181" type="veh_passenger" depart="230.66" departLane="best" from="1065886485" to="637393246#1"/>
    <trip id="veh182" type="veh_passenger" depart="231.94" departLane="best" departSpeed="max" from="51064231#0" to="1078186145#0"/>
    <trip id="veh183" type="veh_passenger" depart="233.21" departLane="best" from="1065858301" to="1154449270"/>
    <trip id="veh184" type="veh_passenger" depart="234.48" departLane="best" departSpeed="max" from="111604366" to="1077408419"/>
    <trip id="veh185" type="veh_passenger" depart="235.76" departLane="best" from="520297190#0" to="1154449270"/>
    <trip id="veh186" type="veh_passenger" depart="237.03" departLane="best" departSpeed="max" from="8831834" to="233079867#2"/>
    <trip id="veh188" type="veh_passenger" depart="239.58" departLane="best" from="1065858300" to="1337972051"/>
    <trip id="veh189" type="veh_passenger" depart="240.86" departLane="best" from="-1027521008#1" to="1077408413#1"/>
    <trip id="veh190" type="veh_passenger" depart="242.13" departLane="best" from="1189584300#1" to="1339822203#1"/>
    <trip id="veh191" type="veh_passenger" depart="243.40" departLane="best" departSpeed="max" from="233079090#0" to="1237946321#2"/>
    <trip id="veh192" type="veh_passenger" depart="244.68" departLane="best" departSpeed="max" from="1230271567" to="1011335303#2"/>
    <trip id="veh193" type="veh_passenger" depart="245.95" departLane="best" from="1236942800" to="736423531"/>
    <trip id="veh194" type="veh_passenger" depart="247.23" departLane="best" departSpeed="max" from="590855712#0" to="-8835264#0"/>
    <trip id="veh195" type="veh_passenger" depart="248.50" departLane="best" from="337184513#1" to="1337972051"/>
    <trip id="veh196" type="veh_passenger" depart="249.78" departLane="best" from="233086822" to="1082787306"/>
    <trip id="veh197" type="veh_passenger" depart="251.05" departLane="best" from="637024784" to="483580377#2"/>
    <trip id="veh198" type="veh_passenger" depart="252.33" departLane="best" from="233086822" to="1011335303#2"/>
    <trip id="veh199" type="veh_passenger" depart="253.60" departLane="best" departSpeed="max" from="-8835264#1" to="-132203826"/>
    <trip id="veh200" type="veh_passenger" depart="254.87" departLane="best" from="-1027521009#3" to="1237946321#2"/>
    <trip id="veh201" type="veh_passenger" depart="256.15" departLane="best" from="637393246#2" to="-240037777#10"/>
    <trip id="veh202" type="veh_passenger" depart="257.42" departLane="best" from="1340716366#2" to="1343677844"/>
    <trip id="veh203" type="veh_passenger" depart="258.70" departLane="best" departSpeed="max" from="132203826" to="1027521008#3"/>
    <trip id="veh204" type="veh_passenger" depart="259.97" departLane="best" departSpeed="max" from="233079090#0" to="1027521009#1"/>
    <trip id="veh205" type="veh_passenger" depart="261.25" departLane="best" from="515929882#0" to="537617306"/>
    <trip id="veh206" type="veh_passenger" depart="262.52" departLane="best" from="482917910#2" to="1154449270"/>
    <trip id="veh207" type="veh_passenger" depart="263.79" departLane="best" from="-8805554#1" to="946381229#0"/>
    <trip id="veh208" type="veh_passenger" depart="265.07" departLane="best" from="1335116862" to="-233079090#0"/>
    <trip id="veh209" type="veh_passenger" depart="266.34" departLane="best" departSpeed="max" from="1031557798" to="637393246#1"/>
    <trip id="veh210" type="veh_passenger" depart="267.62" departLane="best" departSpeed="max" from="1230271567" to="6029295#2"/>
    <trip id="veh211" type="veh_passenger" depart="268.89" departLane="best" from="233079867#2" to="986596587"/>
    <trip id="veh212" type="veh_passenger" depart="270.17" departLane="best" from="1343677845" to="920587366#0"/>
    <trip id="veh213" type="veh_passenger" depart="271.44" departLane="best" departSpeed="max" from="725050052#0" to="1340716366#3"/>
    <trip id="veh214" type="veh_passenger" depart="272.72" departLane="best" departSpeed="max" from="51064231#0" to="1335116862"/>
    <trip id="veh215" type="veh_passenger" depart="273.99" departLane="best" from="637393239" to="1337972051"/>
    <trip id="veh216" type="veh_passenger" depart="275.26" departLane="best" departSpeed="max" from="725050052#0" to="483580377#2"/>
    <trip id="veh217" type="veh_passenger" depart="276.54" departLane="best" from="1237946319" to="233086801#3"/>
    <trip id="veh218" type="veh_passenger" depart="277.81" departLane="best" from="1027560135#1" to="1343677844"/>
    <trip id="veh219" type="veh_passenger" depart="279.09" departLane="best" departSpeed="max" from="51711395#0" to="1337972051"/>
    <trip id="veh220" type="veh_passenger" depart="280.36" departLane="best" departSpeed="max" from="144267619" to="1065886485"/>
    <trip id="veh221" type="veh_passenger" depart="281.64" departLane="best" departSpeed="max" from="-233193496#1" to="233079867#1"/>
    <trip id="veh222" type="veh_passenger" depart="282.91" departLane="best" departSpeed="max" from="1031557798" to="1082787306"/>
    <trip id="veh223" type="veh_passenger" depart="284.18" departLane="best" from="1339426604#1" to="779091035#1"/>
    <trip id="veh224" type="veh_passenger" depart="285.46" departLane="best" from="1189584301#1" to="233193496#1"/>
    <trip id="veh225" type="veh_passenger" depart="286.73" departLane="best" from="350378497#4" to="233194674#1"/>
    <trip id="veh226" type="veh_passenger" depart="288.01" departLane="best" from="1154449264#0" to="1337972051"/>
    <trip id="veh227" type="veh_passenger" depart="289.28" departLane="best" from="1340716366#2" to="1011335303#2"/>
    <trip id="veh229" type="veh_passenger" depart="291.83" departLane="best" from="1340716366#2" to="233193496#1"/>
    <trip id="veh230" type="veh_passenger" depart="293.11" departLane="best" from="637393248#0" to="537617306"/>
    <trip id="veh231" type="veh_passenger" depart="294.38" departLane="best" departSpeed="max" from="111604366" to="-1027521009#2"/>
    <trip id="veh232" type="veh_passenger" depart="295.65" departLane="best" from="1077408420#0" to="483580377#2"/>
    <trip id="veh233" type="veh_passenger" depart="296.93" departLane="best" from="637393246#2-AddedOffRampEdge" to="942235438"/>
    <trip id="veh235" type="veh_passenger" depart="299.48" departLane="best" from="1339426606#1" to="1340006285"/>
    <trip id="veh236" type="veh_passenger" depart="300.75" departLane="best" from="1004361302#2" to="1011335303#2"/>
    <trip id="veh237" type="veh_passenger" depart="302.03" departLane="best" from="1206114757#0" to="-132203826"/>
    <trip id="veh238" type="veh_passenger" depart="303.30" departLane="best" from="107574094#0" to="233086801#0"/>
    <trip id="veh239" type="veh_passenger" depart="304.57" departLane="best" from="1153972460" to="-8835264#0"/>
    <trip id="veh240" type="veh_passenger" depart="305.85" departLane="best" departSpeed="max" from="1230271567" to="-684673731#3"/>
    <trip id="veh241" type="veh_passenger" depart="307.12" departLane="best" departSpeed="max" from="144267619" to="-132203826"/>
    <trip id="veh242" type="veh_passenger" depart="308.40" departLane="best" departSpeed="max" from="111604366" to="1339425118#0"/>
    <trip id="veh243" type="veh_passenger" depart="309.67" departLane="best" departSpeed="max" from="-1082787306" to="1343677844"/>
    <trip id="veh245" type="veh_passenger" depart="312.22" departLane="best" from="132111918#0" to="1154449270"/>
    <trip id="veh246" type="veh_passenger" depart="313.50" departLane="best" departSpeed="max" from="-8844871" to="1082787306"/>
    <trip id="veh247" type="veh_passenger" depart="314.77" departLane="best" departSpeed="max" from="51711395#0" to="1154449270"/>
    <trip id="veh248" type="veh_passenger" depart="316.04" departLane="best" from="515929882#0" to="637393242"/>