<additional>
    <!-- First intersection -->
    <tlLogic id="cluster_1840789796_1840789798_1840789842_63832255_#2more" type="static" programID="1" offset="0">
        <phase duration="31" state="GGGgrrrrGGGgrrrr"/>
        <phase duration="4"  state="yyyyrrrryyyyrrrr"/>
        <phase duration="31" state="rrrrGGGgrrrrGGGg"/>
        <phase duration="4"  state="rrrryyyyrrrryyyy"/>
    </tlLogic>

    <!-- Second intersection -->
    <tlLogic id="cluster_2371445650_3259276436_3259276437_5812529448_#7more" type="static" programID="1" offset="0">
        <phase duration="31" state="GGGgrrrrGGGgrrrr"/>
        <phase duration="4"  state="yyyyrrrryyyyrrrr"/>
        <phase duration="31" state="rrrrGGGgrrrrGGGg"/>
        <phase duration="4"  state="rrrryyyyrrrryyyy"/>
    </tlLogic>
</additional>