<?xml version="1.0" encoding="UTF-8"?>

<!-- generated on 2025-04-18 08:46:27.316695 by osmWebWizard.py v1_21_0+0000-d7b3b481c43
<configuration>
    <net-file value="C:\Users\jones\2025-04-18-08-46-19\osm.net.xml.gz"/>
    <output-trip-file value="C:\Users\jones\2025-04-18-08-46-19\osm.passenger.trips.xml"/>
    <route-file value="C:\Users\jones\2025-04-18-08-46-19\osm.passenger.rou.xml"/>
    <prefix value="veh"/>
    <trip-attributes value="departLane=&quot;best&quot;"/>
    <fringe-start-attributes value="departSpeed=&quot;max&quot;"/>
    <vehicle-class value="passenger"/>
    <lanes value="True"/>
    <fringe-factor value="12"/>
    <allow-fringe.min-length value="1000.0"/>
    <via-edge-types value="highway.motorway,highway.motorway_link,highway.trunk_link,highway.primary_link,highway.secondary_link,highway.tertiary_link"/>
    <min-distance value="300.0"/>
    <min-distance.fringe value="10.0"/>
    <remove-loops value="True"/>
    <validate value="True"/>
    <insertion-density value="24.0"/>
</configuration>
-->

<!-- generated on 2025-04-18 08:46:27 by Eclipse SUMO duarouter Version 1.21.0
<duarouterConfiguration xmlns:xsi="http://www.w3.org/2001/XMLSchema-instance" xsi:noNamespaceSchemaLocation="http://sumo.dlr.de/xsd/duarouterConfiguration.xsd">

    <input>
        <net-file value="C:\Users\jones\2025-04-18-08-46-19\osm.net.xml.gz"/>
        <route-files value="C:\Users\jones\2025-04-18-08-46-19\osm.passenger.trips.xml"/>
    </input>

    <output>
        <output-file value="C:\Users\jones\2025-04-18-08-46-19\osm.passenger.trips.xml.tmp"/>
        <alternatives-output value="NUL"/>
        <write-trips value="true"/>
    </output>

    <processing>
        <remove-loops value="true"/>
    </processing>

    <time>
        <begin value="0.0"/>
        <end value="3600.0"/>
    </time>

    <report>
        <no-warnings value="true"/>
        <ignore-errors value="true"/>
        <no-step-log value="true"/>
    </report>

</duarouterConfiguration>
-->

<routes xmlns:xsi="http://www.w3.org/2001/XMLSchema-instance" xsi:noNamespaceSchemaLocation="http://sumo.dlr.de/xsd/routes_file.xsd">
    <vType id="veh_passenger" vClass="passenger"/>
    <trip id="veh1" type="veh_passenger" depart="0.80" departLane="best" departSpeed="max" from="111604382" to="1078835582"/>
    <trip id="veh2" type="veh_passenger" depart="1.60" departLane="best" departSpeed="max" from="8829706" to="698705913#1"/>
    <trip id="veh3" type="veh_passenger" depart="2.39" departLane="best" departSpeed="max" from="946880126" to="1012733498"/>
    <trip id="veh5" type="veh_passenger" depart="3.99" departLane="best" departSpeed="max" from="108536849" to="228646783#1"/>
    <trip id="veh6" type="veh_passenger" depart="4.79" departLane="best" departSpeed="max" from="-231402947" to="1078835581"/>
    <trip id="veh7" type="veh_passenger" depart="5.59" departLane="best" from="777507132#0-AddedOffRampEdge" to="237202551#1"/>
    <trip id="veh8" type="veh_passenger" depart="6.38" departLane="best" departSpeed="max" from="108536849" to="47025859"/>
    <trip id="veh9" type="veh_passenger" depart="7.18" departLane="best" from="886059505#1" to="-1341771126"/>
    <trip id="veh11" type="veh_passenger" depart="8.78" departLane="best" departSpeed="max" from="1150363304" to="1053627321"/>
    <trip id="veh12" type="veh_passenger" depart="9.58" departLane="best" departSpeed="max" from="968181368#0" to="1134756918"/>
    <trip id="veh13" type="veh_passenger" depart="10.37" departLane="best" from="-914527755#0" to="1012734795#1"/>
    <trip id="veh14" type="veh_passenger" depart="11.17" departLane="best" departSpeed="max" from="932790975" to="5041545"/>
    <trip id="veh15" type="veh_passenger" depart="11.97" departLane="best" from="-886059503" to="777507132#1"/>
    <trip id="veh16" type="veh_passenger" depart="12.77" departLane="best" departSpeed="max" from="47025853" to="984138429#1"/>
    <trip id="veh17" type="veh_passenger" depart="13.57" departLane="best" from="117995337#1" to="245925447#3"/>
    <trip id="veh18" type="veh_passenger" depart="14.36" departLane="best" from="-914527747" to="5041545"/>
    <trip id="veh19" type="veh_passenger" depart="15.16" departLane="best" departSpeed="max" from="932790975" to="464805848"/>
    <trip id="veh21" type="veh_passenger" depart="16.76" departLane="best" from="-8844497#3" to="1078835582"/>
    <trip id="veh24" type="veh_passenger" depart="19.15" departLane="best" from="116044411" to="1078835582"/>
    <trip id="veh25" type="veh_passenger" depart="19.95" departLane="best" departSpeed="max" from="111604382" to="953025979"/>
    <trip id="veh26" type="veh_passenger" depart="20.75" departLane="best" from="777507132#0-AddedOffRampEdge" to="5041545"/>
    <trip id="veh28" type="veh_passenger" depart="22.34" departLane="best" departSpeed="max" from="984138428" to="52238206#0"/>
    <trip id="veh29" type="veh_passenger" depart="23.14" departLane="best" from="590885949" to="698705913#1"/>
    <trip id="veh30" type="veh_passenger" depart="23.94" departLane="best" from="777507134" to="782564344"/>
    <trip id="veh31" type="veh_passenger" depart="24.74" departLane="best" departSpeed="max" from="108536849" to="-231402946"/>
    <trip id="veh32" type="veh_passenger" depart="25.54" departLane="best" from="231438572" to="1079385439"/>
    <trip id="veh33" type="veh_passenger" depart="26.33" departLane="best" departSpeed="max" from="108536849" to="953025979"/>
    <trip id="veh34" type="veh_passenger" depart="27.13" departLane="best" departSpeed="max" from="932790975" to="111604359"/>
    <trip id="veh35" type="veh_passenger" depart="27.93" departLane="best" from="777507134" to="119549271#0"/>
    <trip id="veh36" type="veh_passenger" depart="28.73" departLane="best" departSpeed="max" from="959664535" to="151306165"/>
    <trip id="veh37" type="veh_passenger" depart="29.52" departLane="best" from="1106851952" to="1079385437"/>
    <trip id="veh38" type="veh_passenger" depart="30.32" departLane="best" from="590885951" to="1079385439"/>
    <trip id="veh39" type="veh_passenger" depart="31.12" departLane="best" departSpeed="max" from="698705889" to="886059490"/>
    <trip id="veh40" type="veh_passenger" depart="31.92" departLane="best" departSpeed="max" from="984138453" to="231402947"/>
    <trip id="veh41" type="veh_passenger" depart="32.72" departLane="best" from="-914527752" to="-231438568"/>
    <trip id="veh42" type="veh_passenger" depart="33.51" departLane="best" departSpeed="max" from="1042181663#0" to="5041545"/>
    <trip id="veh45" type="veh_passenger" depart="35.91" departLane="best" departSpeed="max" from="984138453" to="237202551#1"/>
    <trip id="veh47" type="veh_passenger" depart="37.50" departLane="best" from="-1341999789#0" to="771092883#1"/>
    <trip id="veh48" type="veh_passenger" depart="38.30" departLane="best" departSpeed="max" from="851746995#0" to="237202551#1"/>
    <trip id="veh49" type="veh_passenger" depart="39.10" departLane="best" departSpeed="max" from="111604382" to="52238206#0"/>
    <trip id="veh50" type="veh_passenger" depart="39.90" departLane="best" departSpeed="max" from="1042181663#0" to="1341772138"/>
    <trip id="veh51" type="veh_passenger" depart="40.70" departLane="best" departSpeed="max" from="144017706#0" to="953025979"/>
    <trip id="veh52" type="veh_passenger" depart="41.49" departLane="best" departSpeed="max" from="932790975" to="1079385439"/>
    <trip id="veh53" type="veh_passenger" depart="42.29" departLane="best" from="245925447#0" to="1069941979"/>
    <trip id="veh54" type="veh_passenger" depart="43.09" departLane="best" departSpeed="max" from="959664535" to="8844497#1"/>
    <trip id="veh55" type="veh_passenger" depart="43.89" departLane="best" departSpeed="max" from="111604382" to="52238206#0"/>
    <trip id="veh57" type="veh_passenger" depart="45.48" departLane="best" from="886059489#0" to="237202551#1"/>
    <trip id="veh58" type="veh_passenger" depart="46.28" departLane="best" departSpeed="max" from="886059495" to="237202551#1"/>
    <trip id="veh59" type="veh_passenger" depart="47.08" departLane="best" from="119549333#1" to="111604359"/>
    <trip id="veh60" type="veh_passenger" depart="47.88" departLane="best" departSpeed="max" from="932790975" to="8817313"/>
    <trip id="veh61" type="veh_passenger" depart="48.68" departLane="best" departSpeed="max" from="111604382" to="8810899"/>
    <trip id="veh62" type="veh_passenger" depart="49.47" departLane="best" departSpeed="max" from="932790975" to="953025979"/>
    <trip id="veh63" type="veh_passenger" depart="50.27" departLane="best" from="-914527747" to="151306165"/>
    <trip id="veh64" type="veh_passenger" depart="51.07" departLane="best" departSpeed="max" from="-8843844#1" to="782564344"/>
    <trip id="veh65" type="veh_passenger" depart="51.87" departLane="best" from="886059490" to="1053627320"/>
    <trip id="veh66" type="veh_passenger" depart="52.67" departLane="best" departSpeed="max" from="231402946" to="245925447#2"/>
    <trip id="veh67" type="veh_passenger" depart="53.46" departLane="best" departSpeed="max" from="111604382" to="8844497#3"/>
    <trip id="veh68" type="veh_passenger" depart="54.26" departLane="best" departSpeed="max" from="142426369" to="1078835582"/>
    <trip id="veh69" type="veh_passenger" depart="55.06" departLane="best" departSpeed="max" from="47025853" to="777507132#1"/>
    <trip id="veh70" type="veh_passenger" depart="55.86" departLane="best" departSpeed="max" from="108536849" to="111604359"/>
    <trip id="veh71" type="veh_passenger" depart="56.66" departLane="best" departSpeed="max" from="984138453" to="590885950#0"/>
    <trip id="veh72" type="veh_passenger" depart="57.45" departLane="best" departSpeed="max" from="142426369" to="231438572"/>
    <trip id="veh74" type="veh_passenger" depart="59.05" departLane="best" departSpeed="max" from="108536849" to="1078835582"/>
    <trip id="veh75" type="veh_passenger" depart="59.85" departLane="best" departSpeed="max" from="-8843844#1" to="5041545"/>
    <trip id="veh76" type="veh_passenger" depart="60.65" departLane="best" departSpeed="max" from="108536849" to="886059494"/>
    <trip id="veh77" type="veh_passenger" depart="61.44" departLane="best" departSpeed="max" from="932790975" to="914527747"/>
    <trip id="veh78" type="veh_passenger" depart="62.24" departLane="best" departSpeed="max" from="1093416517#0" to="698705913#1"/>
    <trip id="veh79" type="veh_passenger" depart="63.04" departLane="best" departSpeed="max" from="108536849" to="1053627321"/>
    <trip id="veh80" type="veh_passenger" depart="63.84" departLane="best" departSpeed="max" from="968181368#0" to="42688704#2"/>
    <trip id="veh81" type="veh_passenger" depart="64.64" departLane="best" departSpeed="max" from="231402946" to="806545828"/>
    <trip id="veh82" type="veh_passenger" depart="65.43" departLane="best" from="886059503" to="1069941979"/>
    <trip id="veh83" type="veh_passenger" depart="66.23" departLane="best" from="-914527760" to="1341772138"/>
    <trip id="veh84" type="veh_passenger" depart="67.03" departLane="best" departSpeed="max" from="142426369" to="151306165"/>
    <trip id="veh85" type="veh_passenger" depart="67.83" departLane="best" departSpeed="max" from="8829706" to="698705913#1"/>
    <trip id="veh86" type="veh_passenger" depart="68.63" departLane="best" departSpeed="max" from="984138428" to="1012734795#1"/>
    <trip id="veh87" type="veh_passenger" depart="69.42" departLane="best" from="119549333#1" to="1134756918"/>
    <trip id="veh88" type="veh_passenger" depart="70.22" departLane="best" departSpeed="max" from="932790975" to="1079385439"/>
    <trip id="veh89" type="veh_passenger" depart="71.02" departLane="best" departSpeed="max" from="108536849" to="1341999791"/>
    <trip id="veh91" type="veh_passenger" depart="72.62" departLane="best" departSpeed="max" from="1093416517#0" to="914527751"/>
    <trip id="veh94" type="veh_passenger" depart="75.01" departLane="best" departSpeed="max" from="984138453" to="8824757"/>
    <trip id="veh95" type="veh_passenger" depart="75.81" departLane="best" from="975614676" to="-914527755#0"/>
    <trip id="veh96" type="veh_passenger" depart="76.61" departLane="best" departSpeed="max" from="932790975" to="1069941979"/>
    <trip id="veh97" type="veh_passenger" depart="77.40" departLane="best" departSpeed="max" from="231438568" to="1078835582"/>
    <trip id="veh98" type="veh_passenger" depart="78.20" departLane="best" from="119549270#2" to="-8810899"/>
    <trip id="veh99" type="veh_passenger" depart="79.00" departLane="best" from="117995337#1" to="984138429#1"/>
    <trip id="veh100" type="veh_passenger" depart="79.80" departLane="best" departSpeed="max" from="111604382" to="806545828"/>
    <trip id="veh101" type="veh_passenger" depart="80.60" departLane="best" departSpeed="max" from="144017706#0" to="1341771126"/>
    <trip id="veh102" type="veh_passenger" depart="81.39" departLane="best" from="590885949" to="771092883#1"/>
    <trip id="veh104" type="veh_passenger" depart="82.99" departLane="best" from="975614676" to="464805848"/>
    <trip id="veh106" type="veh_passenger" depart="84.59" departLane="best" departSpeed="max" from="-8817313" to="464805848"/>
    <trip id="veh107" type="veh_passenger" depart="85.38" departLane="best" from="245925447#2" to="8833238"/>
    <trip id="veh109" type="veh_passenger" depart="86.98" departLane="best" from="-8844497#3" to="1069941979"/>
    <trip id="veh110" type="veh_passenger" depart="87.78" departLane="best" departSpeed="max" from="108536849" to="1053627315#0"/>
    <trip id="veh111" type="veh_passenger" depart="88.57" departLane="best" departSpeed="max" from="946880126" to="1079385436"/>
    <trip id="veh113" type="veh_passenger" depart="90.17" departLane="best" from="1341999791" to="464805848"/>
    <trip id="veh115" type="veh_passenger" depart="91.77" departLane="best" departSpeed="max" from="108536849" to="771092883#0"/>
    <trip id="veh116" type="veh_passenger" depart="92.56" departLane="best" departSpeed="max" from="1093416517#0" to="119549271#0"/>
    <trip id="veh117" type="veh_passenger" depart="93.36" departLane="best" from="806545831#0" to="1106851951"/>
    <trip id="veh118" type="veh_passenger" depart="94.16" departLane="best" departSpeed="max" from="-8843844#1" to="151306165"/>
    <trip id="veh119" type="veh_passenger" depart="94.96" departLane="best" departSpeed="max" from="-8843844#1" to="1078835582"/>
    <trip id="veh120" type="veh_passenger" depart="95.76" departLane="best" departSpeed="max" from="111604382" to="914527761"/>
    <trip id="veh123" type="veh_passenger" depart="98.15" departLane="best" from="914527752" to="741655585#1"/>
    <trip id="veh124" type="veh_passenger" depart="98.95" departLane="best" from="741655582#1" to="984138429#1"/>
    <trip id="veh125" type="veh_passenger" depart="99.75" departLane="best" from="777507133" to="-1341771126"/>
    <trip id="veh129" type="veh_passenger" depart="102.94" departLane="best" from="1016763371" to="245925447#4"/>
    <trip id="veh130" type="veh_passenger" depart="103.74" departLane="best" departSpeed="max" from="111604382" to="5041545"/>
    <trip id="veh131" type="veh_passenger" depart="104.53" departLane="best" departSpeed="max" from="8815492#0" to="1078835582"/>
    <trip id="veh133" type="veh_passenger" depart="106.13" departLane="best" from="231438572" to="886059494"/>
    <trip id="veh134" type="veh_passenger" depart="106.93" departLane="best" departSpeed="max" from="932790975" to="1012734795#1"/>
    <trip id="veh135" type="veh_passenger" depart="107.73" departLane="best" departSpeed="max" from="142426369" to="1079385439"/>
    <trip id="veh136" type="veh_passenger" depart="108.52" departLane="best" from="119711402" to="782564344"/>
    <trip id="veh138" type="veh_passenger" depart="110.12" departLane="best" from="-8844497#5" to="245925447#3"/>
    <trip id="veh139" type="veh_passenger" depart="110.92" departLane="best" departSpeed="max" from="142426369" to="1341999789#0"/>
    <trip id="veh141" type="veh_passenger" depart="112.51" departLane="best" departSpeed="max" from="959664535" to="242305077#1"/>
    <trip id="veh142" type="veh_passenger" depart="113.31" departLane="best" from="914527752" to="464805848"/>
    <trip id="veh144" type="veh_passenger" depart="114.91" departLane="best" departSpeed="max" from="111604382" to="741655582#1"/>
    <trip id="veh146" type="veh_passenger" depart="116.50" departLane="best" departSpeed="max" from="959664535" to="1078835582"/>
    <trip id="veh147" type="veh_passenger" depart="117.30" departLane="best" departSpeed="max" from="1093416517#0" to="1012734795#1"/>
    <trip id="veh148" type="veh_passenger" depart="118.10" departLane="best" departSpeed="max" from="886059495" to="886059467"/>
    <trip id="veh149" type="veh_passenger" depart="118.90" departLane="best" from="119711402" to="5041545"/>
    <trip id="veh151" type="veh_passenger" depart="120.49" departLane="best" departSpeed="max" from="932790975" to="984138429#1"/>
    <trip id="veh153" type="veh_passenger" depart="122.09" departLane="best" departSpeed="max" from="-231402947" to="777507135"/>
    <trip id="veh154" type="veh_passenger" depart="122.89" departLane="best" from="1149158545" to="914527760"/>
    <trip id="veh156" type="veh_passenger" depart="124.48" departLane="best" from="886059506" to="1079385439"/>
    <trip id="veh157" type="veh_passenger" depart="125.28" departLane="best" departSpeed="max" from="886059495" to="1012734795#1"/>
    <trip id="veh158" type="veh_passenger" depart="126.08" departLane="best" departSpeed="max" from="932790975" to="8833238"/>
    <trip id="veh159" type="veh_passenger" depart="126.88" departLane="best" departSpeed="max" from="108536849" to="8817311#0"/>
    <trip id="veh160" type="veh_passenger" depart="127.68" departLane="best" departSpeed="max" from="144017706#0" to="111604359"/>
    <trip id="veh161" type="veh_passenger" depart="128.47" departLane="best" departSpeed="max" from="886059495" to="1078835582"/>
    <trip id="veh162" type="veh_passenger" depart="129.27" departLane="best" departSpeed="max" from="-231402947" to="1069941979"/>
    <trip id="veh164" type="veh_passenger" depart="130.87" departLane="best" from="975614675" to="1079385439"/>
    <trip id="veh166" type="veh_passenger" depart="132.46" departLane="best" departSpeed="max" from="984138428" to="237202551#1"/>
    <trip id="veh167" type="veh_passenger" depart="133.26" departLane="best" departSpeed="max" from="968181368#0" to="1053627314"/>
    <trip id="veh168" type="veh_passenger" depart="134.06" departLane="best" from="975614676" to="1069941979"/>
    <trip id="veh169" type="veh_passenger" depart="134.86" departLane="best" from="973552492" to="1079385439"/>
    <trip id="veh170" type="veh_passenger" depart="135.66" departLane="best" departSpeed="max" from="1042181663#0" to="1341772138"/>
    <trip id="veh171" type="veh_passenger" depart="136.45" departLane="best" departSpeed="max" from="8829706" to="111604359"/>
    <trip id="veh173" type="veh_passenger" depart="138.05" departLane="best" departSpeed="max" from="119549267" to="42688704#5"/>
    <trip id="veh174" type="veh_passenger" depart="138.85" departLane="best" departSpeed="max" from="1093416517#0" to="770545910"/>
    <trip id="veh175" type="veh_passenger" depart="139.65" departLane="best" from="-1052333236" to="914527752"/>
    <trip id="veh176" type="veh_passenger" depart="140.44" departLane="best" departSpeed="max" from="47025853" to="771092883#1"/>
    <trip id="veh178" type="veh_passenger" depart="142.04" departLane="best" from="116044277#0" to="770545910"/>
    <trip id="veh180" type="veh_passenger" depart="143.63" departLane="best" from="231438572" to="8833238"/>
    <trip id="veh181" type="veh_passenger" depart="144.43" departLane="best" departSpeed="max" from="8815492#0" to="1106851951"/>
    <trip id="veh182" type="veh_passenger" depart="145.23" departLane="best" departSpeed="max" from="111604382" to="119549276#1"/>
    <trip id="veh183" type="veh_passenger" depart="146.03" departLane="best" from="119549333#0" to="1106851949#0"/>
    <trip id="veh185" type="veh_passenger" depart="147.62" departLane="best" departSpeed="max" from="968181368#0" to="698705913#1"/>
    <trip id="veh186" type="veh_passenger" depart="148.42" departLane="best" departSpeed="max" from="959664535" to="5041545"/>
    <trip id="veh187" type="veh_passenger" depart="149.22" departLane="best" departSpeed="max" from="111604382" to="245925447#1"/>
    <trip id="veh189" type="veh_passenger" depart="150.82" departLane="best" departSpeed="max" from="142426369" to="464805848"/>
    <trip id="veh190" type="veh_passenger" depart="151.61" departLane="best" from="777507133" to="151306165"/>
    <trip id="veh191" type="veh_passenger" depart="152.41" departLane="best" departSpeed="max" from="142426369" to="1078835582"/>
    <trip id="veh192" type="veh_passenger" depart="153.21" departLane="best" departSpeed="max" from="231402946" to="886059491#0"/>
    <trip id="veh193" type="veh_passenger" depart="154.01" departLane="best" departSpeed="max" from="886059495" to="1069941979"/>
    <trip id="veh195" type="veh_passenger" depart="155.60" departLane="best" departSpeed="max" from="913964451" to="782564341"/>
    <trip id="veh196" type="veh_passenger" depart="156.40" departLane="best" from="806545831#0" to="1078835582"/>
    <trip id="veh197" type="veh_passenger" depart="157.20" departLane="best" departSpeed="max" from="108536849" to="-144017706#0"/>
    <trip id="veh198" type="veh_passenger" depart="158.00" departLane="best" departSpeed="max" from="1093416517#0" to="151306165"/>
    <trip id="veh199" type="veh_passenger" depart="158.80" departLane="best" departSpeed="max" from="932790975" to="914527747"/>
    <trip id="veh200" type="veh_passenger" depart="159.59" departLane="best" from="-1341999789#0" to="5041545"/>
    <trip id="veh201" type="veh_passenger" depart="160.39" departLane="best" departSpeed="max" from="108536849" to="708499033"/>
    <trip id="veh202" type="veh_passenger" depart="161.19" departLane="best" from="233881862#1" to="1079385436"/>
    <trip id="veh203" type="veh_passenger" depart="161.99" departLane="best" from="777507134" to="-1284647653#0"/>
    <trip id="veh204" type="veh_passenger" depart="162.79" departLane="best" from="886059466" to="782564344"/>
    <trip id="veh205" type="veh_passenger" depart="163.58" departLane="best" from="1016763371" to="1341772138"/>
    <trip id="veh206" type="veh_passenger" depart="164.38" departLane="best" departSpeed="max" from="1079470030" to="953025979"/>
    <trip id="veh207" type="veh_passenger" depart="165.18" departLane="best" from="42688704#4" to="-698705891"/>
    <trip id="veh208" type="veh_passenger" depart="165.98" departLane="best" departSpeed="max" from="1093416517#0" to="8833238"/>
    <trip id="veh211" type="veh_passenger" depart="168.37" departLane="best" from="698705914#0" to="953025979"/>
    <trip id="veh212" type="veh_passenger" depart="169.17" departLane="best" departSpeed="max" from="946880126" to="5041545"/>
    <trip id="veh213" type="veh_passenger" depart="169.97" departLane="best" departSpeed="max" from="8815492#0" to="228646783#1"/>
    <trip id="veh214" type="veh_passenger" depart="170.77" departLane="best" from="914527751" to="245925447#1"/>
    <trip id="veh216" type="veh_passenger" depart="172.36" departLane="best" departSpeed="max" from="231402946" to="1079385439"/>
    <trip id="veh217" type="veh_passenger" depart="173.16" departLane="best" departSpeed="max" from="1093416517#0" to="51711457"/>
    <trip id="veh219" type="veh_passenger" depart="174.76" departLane="best" from="763040796" to="1079385439"/>
    <trip id="veh221" type="veh_passenger" depart="176.35" departLane="best" departSpeed="max" from="111604382" to="111604359"/>
    <trip id="veh223" type="veh_passenger" depart="177.95" departLane="best" departSpeed="max" from="851746995#0" to="-8843199"/>
    <trip id="veh224" type="veh_passenger" depart="178.75" departLane="best" from="1284647653#0" to="237202551#1"/>
    <trip id="veh225" type="veh_passenger" depart="179.54" departLane="best" from="1341999789#1" to="1078835582"/>
    <trip id="veh226" type="veh_passenger" depart="180.34" departLane="best" from="1341999791" to="886059494"/>
    <trip id="veh227" type="veh_passenger" depart="181.14" departLane="best" departSpeed="max" from="698705889" to="708499033"/>
    <trip id="veh228" type="veh_passenger" depart="181.94" departLane="best" departSpeed="max" from="932790975" to="782564344"/>
    <trip id="veh229" type="veh_passenger" depart="182.74" departLane="best" from="117995337#1" to="-1284647653#0"/>
    <trip id="veh230" type="veh_passenger" depart="183.53" departLane="best" departSpeed="max" from="1150363304" to="782564343"/>
    <trip id="veh231" type="veh_passenger" depart="184.33" departLane="best" departSpeed="max" from="932790975" to="953025979"/>
    <trip id="veh233" type="veh_passenger" depart="185.93" departLane="best" from="51711457" to="5041545"/>
    <trip id="veh234" type="veh_passenger" depart="186.73" departLane="best" departSpeed="max" from="108536849" to="1078835582"/>
    <trip id="veh235" type="veh_passenger" depart="187.52" departLane="best" departSpeed="max" from="142426369" to="-144017706#1"/>
    <trip id="veh236" type="veh_passenger" depart="188.32" departLane="best" departSpeed="max" from="1150363304" to="698705913#1"/>
    <trip id="veh237" type="veh_passenger" depart="189.12" departLane="best" from="119711302#1" to="1064261476"/>
    <trip id="veh238" type="veh_passenger" depart="189.92" departLane="best" from="228646783#1" to="1053627318"/>
    <trip id="veh239" type="veh_passenger" depart="190.72" departLane="best" departSpeed="max" from="762563214#0" to="-144017706#0"/>
    <trip id="veh240" type="veh_passenger" depart="191.51" departLane="best" departSpeed="max" from="119549267" to="28483341"/>
    <trip id="veh241" type="veh_passenger" depart="192.31" departLane="best" departSpeed="max" from="-231402947" to="52238207"/>
    <trip id="veh242" type="veh_passenger" depart="193.11" departLane="best" from="1149158544#1" to="151306165"/>
    <trip id="veh244" type="veh_passenger" depart="194.71" departLane="best" departSpeed="max" from="108536849" to="111604359"/>
    <trip id="veh246" type="veh_passenger" depart="196.30" departLane="best" from="886059466" to="8817313"/>
    <trip id="veh247" type="veh_passenger" depart="197.10" departLane="best" departSpeed="max" from="1093416517#0" to="914527759"/>
    <trip id="veh248" type="veh_passenger" depart="197.90" departLane="best" from="-1341999791" to="237202551#1"/>
    <trip id="veh249" type="veh_passenger" depart="198.69" departLane="best" departSpeed="max" from="984138453" to="1134756918"/>
    <trip id="veh250" type="veh_passenger" depart="199.49" departLane="best" from="777507132#0-AddedOffRampEdge" to="782564344"/>
    <trip id="veh251" type="veh_passenger" depart="200.29" departLane="best" from="777507132#1" to="782564344"/>
    <trip id="veh252" type="veh_passenger" depart="201.09" departLane="best" departSpeed="max" from="968181368#0" to="1078835581"/>
    <trip id="veh253" type="veh_passenger" depart="201.89" departLane="best" from="144017706#1" to="1053627321"/>
    <trip id="veh255" type="veh_passenger" depart="203.48" departLane="best" from="698705862#0" to="1078835582"/>
    <trip id="veh256" type="veh_passenger" depart="204.28" departLane="best" departSpeed="max" from="851746995#0" to="782564344"/>
    <trip id="veh257" type="veh_passenger" depart="205.08" departLane="best" departSpeed="max" from="1079470030" to="5041545"/>
    <trip id="veh258" type="veh_passenger" depart="205.88" departLane="best" from="886059465" to="1053627313#1"/>
    <trip id="veh259" type="veh_passenger" depart="206.67" departLane="best" departSpeed="max" from="913964451" to="973552492"/>
    <trip id="veh260" type="veh_passenger" depart="207.47" departLane="best" departSpeed="max" from="1042181663#0" to="-144017706#0"/>
    <trip id="veh261" type="veh_passenger" depart="208.27" departLane="best" departSpeed="max" from="111604382" to="698705913#1"/>
    <trip id="veh262" type="veh_passenger" depart="209.07" departLane="best" departSpeed="max" from="968181368#0" to="119549276#1"/>
    <trip id="veh263" type="veh_passenger" depart="209.87" departLane="best" departSpeed="max" from="8815492#0" to="914527752"/>
    <trip id="veh264" type="veh_passenger" depart="210.66" departLane="best" departSpeed="max" from="851746995#0" to="5041545"/>
    <trip id="veh266" type="veh_passenger" depart="212.26" departLane="best" departSpeed="max" from="932790975" to="5041545"/>
    <trip id="veh268" type="veh_passenger" depart="213.86" departLane="best" departSpeed="max" from="886059495" to="1134756918"/>
    <trip id="veh269" type="veh_passenger" depart="214.65" departLane="best" departSpeed="max" from="142426369" to="1149158543"/>
    <trip id="veh270" type="veh_passenger" depart="215.45" departLane="best" from="245925447#4" to="1134756918"/>
    <trip id="veh271" type="veh_passenger" depart="216.25" departLane="best" departSpeed="max" from="932790975" to="8817311#1"/>
    <trip id="veh272" type="veh_passenger" depart="217.05" departLane="best" from="1016263505#2" to="953025979"/>
    <trip id="veh274" type="veh_passenger" depart="218.64" departLane="best" departSpeed="max" from="851746995#0" to="1341772138"/>
    <trip id="veh275" type="veh_passenger" depart="219.44" departLane="best" departSpeed="max" from="8829706" to="973552492"/>
    <trip id="veh277" type="veh_passenger" depart="221.04" departLane="best" departSpeed="max" from="47025853" to="151306165"/>
    <trip id="veh278" type="veh_passenger" depart="221.84" departLane="best" departSpeed="max" from="142426369" to="777507132#1"/>
    <trip id="veh279" type="veh_passenger" depart="222.63" departLane="best" departSpeed="max" from="111604382" to="8833238"/>