<routes>
    <!-- Vehicle types for truck platoons -->
    <vType id="truck" accel="1.0" decel="3.0" sigma="0.5" length="10" minGap="3" maxSpeed="22.352" color="1,1,0"/>
    <vType id="truck_platoon_leader" accel="1.0" decel="3.0" sigma="0.0" length="10" minGap="2" maxSpeed="22.352" color="0.8,0.4,0"/>
    <vType id="truck_platoon_follower" accel="1.0" decel="3.0" sigma="0.0" length="10" minGap="0.5" maxSpeed="22.352" color="0.8,0.8,0"/>
    
    <!-- Create truck platoons -->
    <route id="main_route" edges="228470926 1318032192 1318032193 1318032191#0 228463837 173228852"/>
    <flow id="truck_platoon" type="truck" route="main_route" begin="0" number="5" departLane="0" departSpeed="22.352" period="1"/>
</routes>